data_SABWAU_SL_coremof-2019

_audit_creation_method RASPA-1.0
_audit_creation_date 2023-6-5
_audit_author_name 'hardiagon'

_cell_length_a    26.304
_cell_length_b    30.448
_cell_length_c    31.4178
_cell_angle_alpha 111.311
_cell_angle_beta  103.248
_cell_angle_gamma 90
_cell_volume      22721.8

_symmetry_cell_setting          triclinic
_symmetry_space_group_name_Hall 'P 1'
_symmetry_space_group_name_H-M  'P 1'
_symmetry_Int_Tables_number     1

_symmetry_equiv_pos_as_xyz 'x,y,z'

loop_
_atom_site_label
_atom_site_type_symbol
_atom_site_fract_x
_atom_site_fract_y
_atom_site_fract_z
_atom_site_charge
Al1      Al     0.000250000000     0.000300000000     0.000800000000     0          
Al2      Al     0.125250000000     0.000300000000     0.000800000000     0          
C3       C      0.040000000000     0.018125000000     0.262333333333     0          
C4       C      0.208750000000     0.232850000000     0.070933333333     0          
C5       C      0.217750000000     0.019200000000     0.199866666667     0          
C6       C      0.032500000000     0.240400000000     0.135733333333     0          
C7       C      0.195250000000     0.006400000000     0.150400000000     0          
C8       C      0.053000000000     0.244100000000     0.183600000000     0          
C9       C      0.019500000000     0.007300000000     0.212133333333     0          
C10      C      0.227500000000     0.237900000000     0.119733333333     0          
C11      C      0.165000000000     0.178625000000     0.262333333333     0          
C12      C      0.083750000000     0.070350000000     0.070933333333     0          
C13      C      0.092750000000     0.130700000000     0.199866666667     0          
C14      C      0.157500000000     0.111400000000     0.135733333333     0          
C15      C      0.070250000000     0.106400000000     0.150400000000     0          
C16      C      0.178000000000     0.143600000000     0.183600000000     0          
C17      C      0.144500000000     0.151800000000     0.212133333333     0          
C18      C      0.102500000000     0.101900000000     0.119733333333     0          
O19      O      0.064000000000     0.222500000000     0.000000000000     0          
O20      O      0.012750000000     0.027300000000     0.290800000000     0          
O21      O      0.235000000000     0.220625000000     0.041666666667     0          
O22      O      0.085000000000     0.001900000000     0.272400000000     0          
O23      O      0.159250000000     0.233600000000     0.056266666667     0          
O24      O      0.189000000000     0.027500000000     0.000000000000     0          
O25      O      0.137750000000     0.190800000000     0.290800000000     0          
O26      O      0.110000000000     0.060625000000     0.041666666667     0          
O27      O      0.210000000000     0.202400000000     0.272400000000     0          
O28      O      0.034250000000     0.058600000000     0.056266666667     0          
H29      H      0.193997500000     0.037750000000     0.226373333333     0          
H30      H      0.060410000000     0.239605000000     0.112596666667     0          
H31      H      0.152347500000     0.011470000000     0.137333333333     0          
H32      H      0.095075000000     0.236122500000     0.195466666667     0          
H33      H      0.068997500000     0.132030000000     0.226373333333     0          
H34      H      0.185410000000     0.094845000000     0.112596666667     0          
H35      H      0.027347500000     0.091530000000     0.137333333333     0          
H36      H      0.220075000000     0.160480000000     0.195466666667     0          
H37      H      0.189000000000     0.062752500000     0.012416666667     0          
H38      H      0.064000000000     0.187247500000     0.320916666667     0          
Al1      Al     0.000250000000     0.000300000000     0.334133333333     0          
Al2      Al     0.125250000000     0.000300000000     0.334133333333     0          
C3       C      0.040000000000     0.018125000000     0.595666666667     0          
C4       C      0.208750000000     0.232850000000     0.404266666667     0          
C5       C      0.217750000000     0.019200000000     0.533200000000     0          
C6       C      0.032500000000     0.240400000000     0.469066666667     0          
C7       C      0.195250000000     0.006400000000     0.483733333333     0          
C8       C      0.053000000000     0.244100000000     0.516933333333     0          
C9       C      0.019500000000     0.007300000000     0.545466666667     0          
C10      C      0.227500000000     0.237900000000     0.453066666667     0          
C11      C      0.165000000000     0.178625000000     0.595666666667     0          
C12      C      0.083750000000     0.070350000000     0.404266666667     0          
C13      C      0.092750000000     0.130700000000     0.533200000000     0          
C14      C      0.157500000000     0.111400000000     0.469066666667     0          
C15      C      0.070250000000     0.106400000000     0.483733333333     0          
C16      C      0.178000000000     0.143600000000     0.516933333333     0          
C17      C      0.144500000000     0.151800000000     0.545466666667     0          
C18      C      0.102500000000     0.101900000000     0.453066666667     0          
O19      O      0.064000000000     0.222500000000     0.333333333333     0          
O20      O      0.012750000000     0.027300000000     0.624133333333     0          
O21      O      0.235000000000     0.220625000000     0.375000000000     0          
O22      O      0.085000000000     0.001900000000     0.605733333333     0          
O23      O      0.159250000000     0.233600000000     0.389600000000     0          
O24      O      0.189000000000     0.027500000000     0.333333333333     0          
O25      O      0.137750000000     0.190800000000     0.624133333333     0          
O26      O      0.110000000000     0.060625000000     0.375000000000     0          
O27      O      0.210000000000     0.202400000000     0.605733333333     0          
O28      O      0.034250000000     0.058600000000     0.389600000000     0          
H29      H      0.193997500000     0.037750000000     0.559706666667     0          
H30      H      0.060410000000     0.239605000000     0.445930000000     0          
H31      H      0.152347500000     0.011470000000     0.470666666667     0          
H32      H      0.095075000000     0.236122500000     0.528800000000     0          
H33      H      0.068997500000     0.132030000000     0.559706666667     0          
H34      H      0.185410000000     0.094845000000     0.445930000000     0          
H35      H      0.027347500000     0.091530000000     0.470666666667     0          
H36      H      0.220075000000     0.160480000000     0.528800000000     0          
H37      H      0.189000000000     0.062752500000     0.345750000000     0          
H38      H      0.064000000000     0.187247500000     0.654250000000     0          
Al1      Al     0.000250000000     0.000300000000     0.667466666667     0          
Al2      Al     0.125250000000     0.000300000000     0.667466666667     0          
C3       C      0.040000000000     0.018125000000     0.929000000000     0          
C4       C      0.208750000000     0.232850000000     0.737600000000     0          
C5       C      0.217750000000     0.019200000000     0.866533333333     0          
C6       C      0.032500000000     0.240400000000     0.802400000000     0          
C7       C      0.195250000000     0.006400000000     0.817066666667     0          
C8       C      0.053000000000     0.244100000000     0.850266666667     0          
C9       C      0.019500000000     0.007300000000     0.878800000000     0          
C10      C      0.227500000000     0.237900000000     0.786400000000     0          
C11      C      0.165000000000     0.178625000000     0.929000000000     0          
C12      C      0.083750000000     0.070350000000     0.737600000000     0          
C13      C      0.092750000000     0.130700000000     0.866533333333     0          
C14      C      0.157500000000     0.111400000000     0.802400000000     0          
C15      C      0.070250000000     0.106400000000     0.817066666667     0          
C16      C      0.178000000000     0.143600000000     0.850266666667     0          
C17      C      0.144500000000     0.151800000000     0.878800000000     0          
C18      C      0.102500000000     0.101900000000     0.786400000000     0          
O19      O      0.064000000000     0.222500000000     0.666666666667     0          
O20      O      0.012750000000     0.027300000000     0.957466666667     0          
O21      O      0.235000000000     0.220625000000     0.708333333333     0          
O22      O      0.085000000000     0.001900000000     0.939066666667     0          
O23      O      0.159250000000     0.233600000000     0.722933333333     0          
O24      O      0.189000000000     0.027500000000     0.666666666667     0          
O25      O      0.137750000000     0.190800000000     0.957466666667     0          
O26      O      0.110000000000     0.060625000000     0.708333333333     0          
O27      O      0.210000000000     0.202400000000     0.939066666667     0          
O28      O      0.034250000000     0.058600000000     0.722933333333     0          
H29      H      0.193997500000     0.037750000000     0.893040000000     0          
H30      H      0.060410000000     0.239605000000     0.779263333333     0          
H31      H      0.152347500000     0.011470000000     0.804000000000     0          
H32      H      0.095075000000     0.236122500000     0.862133333333     0          
H33      H      0.068997500000     0.132030000000     0.893040000000     0          
H34      H      0.185410000000     0.094845000000     0.779263333333     0          
H35      H      0.027347500000     0.091530000000     0.804000000000     0          
H36      H      0.220075000000     0.160480000000     0.862133333333     0          
H37      H      0.189000000000     0.062752500000     0.679083333333     0          
H38      H      0.064000000000     0.187247500000     0.987583333333     0          
Al1      Al     0.000250000000     0.250300000000     0.000800000000     0          
Al2      Al     0.125250000000     0.250300000000     0.000800000000     0          
C3       C      0.040000000000     0.268125000000     0.262333333333     0          
C4       C      0.208750000000     0.482850000000     0.070933333333     0          
C5       C      0.217750000000     0.269200000000     0.199866666667     0          
C6       C      0.032500000000     0.490400000000     0.135733333333     0          
C7       C      0.195250000000     0.256400000000     0.150400000000     0          
C8       C      0.053000000000     0.494100000000     0.183600000000     0          
C9       C      0.019500000000     0.257300000000     0.212133333333     0          
C10      C      0.227500000000     0.487900000000     0.119733333333     0          
C11      C      0.165000000000     0.428625000000     0.262333333333     0          
C12      C      0.083750000000     0.320350000000     0.070933333333     0          
C13      C      0.092750000000     0.380700000000     0.199866666667     0          
C14      C      0.157500000000     0.361400000000     0.135733333333     0          
C15      C      0.070250000000     0.356400000000     0.150400000000     0          
C16      C      0.178000000000     0.393600000000     0.183600000000     0          
C17      C      0.144500000000     0.401800000000     0.212133333333     0          
C18      C      0.102500000000     0.351900000000     0.119733333333     0          
O19      O      0.064000000000     0.472500000000     0.000000000000     0          
O20      O      0.012750000000     0.277300000000     0.290800000000     0          
O21      O      0.235000000000     0.470625000000     0.041666666667     0          
O22      O      0.085000000000     0.251900000000     0.272400000000     0          
O23      O      0.159250000000     0.483600000000     0.056266666667     0          
O24      O      0.189000000000     0.277500000000     0.000000000000     0          
O25      O      0.137750000000     0.440800000000     0.290800000000     0          
O26      O      0.110000000000     0.310625000000     0.041666666667     0          
O27      O      0.210000000000     0.452400000000     0.272400000000     0          
O28      O      0.034250000000     0.308600000000     0.056266666667     0          
H29      H      0.193997500000     0.287750000000     0.226373333333     0          
H30      H      0.060410000000     0.489605000000     0.112596666667     0          
H31      H      0.152347500000     0.261470000000     0.137333333333     0          
H32      H      0.095075000000     0.486122500000     0.195466666667     0          
H33      H      0.068997500000     0.382030000000     0.226373333333     0          
H34      H      0.185410000000     0.344845000000     0.112596666667     0          
H35      H      0.027347500000     0.341530000000     0.137333333333     0          
H36      H      0.220075000000     0.410480000000     0.195466666667     0          
H37      H      0.189000000000     0.312752500000     0.012416666667     0          
H38      H      0.064000000000     0.437247500000     0.320916666667     0          
Al1      Al     0.000250000000     0.250300000000     0.334133333333     0          
Al2      Al     0.125250000000     0.250300000000     0.334133333333     0          
C3       C      0.040000000000     0.268125000000     0.595666666667     0          
C4       C      0.208750000000     0.482850000000     0.404266666667     0          
C5       C      0.217750000000     0.269200000000     0.533200000000     0          
C6       C      0.032500000000     0.490400000000     0.469066666667     0          
C7       C      0.195250000000     0.256400000000     0.483733333333     0          
C8       C      0.053000000000     0.494100000000     0.516933333333     0          
C9       C      0.019500000000     0.257300000000     0.545466666667     0          
C10      C      0.227500000000     0.487900000000     0.453066666667     0          
C11      C      0.165000000000     0.428625000000     0.595666666667     0          
C12      C      0.083750000000     0.320350000000     0.404266666667     0          
C13      C      0.092750000000     0.380700000000     0.533200000000     0          
C14      C      0.157500000000     0.361400000000     0.469066666667     0          
C15      C      0.070250000000     0.356400000000     0.483733333333     0          
C16      C      0.178000000000     0.393600000000     0.516933333333     0          
C17      C      0.144500000000     0.401800000000     0.545466666667     0          
C18      C      0.102500000000     0.351900000000     0.453066666667     0          
O19      O      0.064000000000     0.472500000000     0.333333333333     0          
O20      O      0.012750000000     0.277300000000     0.624133333333     0          
O21      O      0.235000000000     0.470625000000     0.375000000000     0          
O22      O      0.085000000000     0.251900000000     0.605733333333     0          
O23      O      0.159250000000     0.483600000000     0.389600000000     0          
O24      O      0.189000000000     0.277500000000     0.333333333333     0          
O25      O      0.137750000000     0.440800000000     0.624133333333     0          
O26      O      0.110000000000     0.310625000000     0.375000000000     0          
O27      O      0.210000000000     0.452400000000     0.605733333333     0          
O28      O      0.034250000000     0.308600000000     0.389600000000     0          
H29      H      0.193997500000     0.287750000000     0.559706666667     0          
H30      H      0.060410000000     0.489605000000     0.445930000000     0          
H31      H      0.152347500000     0.261470000000     0.470666666667     0          
H32      H      0.095075000000     0.486122500000     0.528800000000     0          
H33      H      0.068997500000     0.382030000000     0.559706666667     0          
H34      H      0.185410000000     0.344845000000     0.445930000000     0          
H35      H      0.027347500000     0.341530000000     0.470666666667     0          
H36      H      0.220075000000     0.410480000000     0.528800000000     0          
H37      H      0.189000000000     0.312752500000     0.345750000000     0          
H38      H      0.064000000000     0.437247500000     0.654250000000     0          
Al1      Al     0.000250000000     0.250300000000     0.667466666667     0          
Al2      Al     0.125250000000     0.250300000000     0.667466666667     0          
C3       C      0.040000000000     0.268125000000     0.929000000000     0          
C4       C      0.208750000000     0.482850000000     0.737600000000     0          
C5       C      0.217750000000     0.269200000000     0.866533333333     0          
C6       C      0.032500000000     0.490400000000     0.802400000000     0          
C7       C      0.195250000000     0.256400000000     0.817066666667     0          
C8       C      0.053000000000     0.494100000000     0.850266666667     0          
C9       C      0.019500000000     0.257300000000     0.878800000000     0          
C10      C      0.227500000000     0.487900000000     0.786400000000     0          
C11      C      0.165000000000     0.428625000000     0.929000000000     0          
C12      C      0.083750000000     0.320350000000     0.737600000000     0          
C13      C      0.092750000000     0.380700000000     0.866533333333     0          
C14      C      0.157500000000     0.361400000000     0.802400000000     0          
C15      C      0.070250000000     0.356400000000     0.817066666667     0          
C16      C      0.178000000000     0.393600000000     0.850266666667     0          
C17      C      0.144500000000     0.401800000000     0.878800000000     0          
C18      C      0.102500000000     0.351900000000     0.786400000000     0          
O19      O      0.064000000000     0.472500000000     0.666666666667     0          
O20      O      0.012750000000     0.277300000000     0.957466666667     0          
O21      O      0.235000000000     0.470625000000     0.708333333333     0          
O22      O      0.085000000000     0.251900000000     0.939066666667     0          
O23      O      0.159250000000     0.483600000000     0.722933333333     0          
O24      O      0.189000000000     0.277500000000     0.666666666667     0          
O25      O      0.137750000000     0.440800000000     0.957466666667     0          
O26      O      0.110000000000     0.310625000000     0.708333333333     0          
O27      O      0.210000000000     0.452400000000     0.939066666667     0          
O28      O      0.034250000000     0.308600000000     0.722933333333     0          
H29      H      0.193997500000     0.287750000000     0.893040000000     0          
H30      H      0.060410000000     0.489605000000     0.779263333333     0          
H31      H      0.152347500000     0.261470000000     0.804000000000     0          
H32      H      0.095075000000     0.486122500000     0.862133333333     0          
H33      H      0.068997500000     0.382030000000     0.893040000000     0          
H34      H      0.185410000000     0.344845000000     0.779263333333     0          
H35      H      0.027347500000     0.341530000000     0.804000000000     0          
H36      H      0.220075000000     0.410480000000     0.862133333333     0          
H37      H      0.189000000000     0.312752500000     0.679083333333     0          
H38      H      0.064000000000     0.437247500000     0.987583333333     0          
Al1      Al     0.000250000000     0.500300000000     0.000800000000     0          
Al2      Al     0.125250000000     0.500300000000     0.000800000000     0          
C3       C      0.040000000000     0.518125000000     0.262333333333     0          
C4       C      0.208750000000     0.732850000000     0.070933333333     0          
C5       C      0.217750000000     0.519200000000     0.199866666667     0          
C6       C      0.032500000000     0.740400000000     0.135733333333     0          
C7       C      0.195250000000     0.506400000000     0.150400000000     0          
C8       C      0.053000000000     0.744100000000     0.183600000000     0          
C9       C      0.019500000000     0.507300000000     0.212133333333     0          
C10      C      0.227500000000     0.737900000000     0.119733333333     0          
C11      C      0.165000000000     0.678625000000     0.262333333333     0          
C12      C      0.083750000000     0.570350000000     0.070933333333     0          
C13      C      0.092750000000     0.630700000000     0.199866666667     0          
C14      C      0.157500000000     0.611400000000     0.135733333333     0          
C15      C      0.070250000000     0.606400000000     0.150400000000     0          
C16      C      0.178000000000     0.643600000000     0.183600000000     0          
C17      C      0.144500000000     0.651800000000     0.212133333333     0          
C18      C      0.102500000000     0.601900000000     0.119733333333     0          
O19      O      0.064000000000     0.722500000000     0.000000000000     0          
O20      O      0.012750000000     0.527300000000     0.290800000000     0          
O21      O      0.235000000000     0.720625000000     0.041666666667     0          
O22      O      0.085000000000     0.501900000000     0.272400000000     0          
O23      O      0.159250000000     0.733600000000     0.056266666667     0          
O24      O      0.189000000000     0.527500000000     0.000000000000     0          
O25      O      0.137750000000     0.690800000000     0.290800000000     0          
O26      O      0.110000000000     0.560625000000     0.041666666667     0          
O27      O      0.210000000000     0.702400000000     0.272400000000     0          
O28      O      0.034250000000     0.558600000000     0.056266666667     0          
H29      H      0.193997500000     0.537750000000     0.226373333333     0          
H30      H      0.060410000000     0.739605000000     0.112596666667     0          
H31      H      0.152347500000     0.511470000000     0.137333333333     0          
H32      H      0.095075000000     0.736122500000     0.195466666667     0          
H33      H      0.068997500000     0.632030000000     0.226373333333     0          
H34      H      0.185410000000     0.594845000000     0.112596666667     0          
H35      H      0.027347500000     0.591530000000     0.137333333333     0          
H36      H      0.220075000000     0.660480000000     0.195466666667     0          
H37      H      0.189000000000     0.562752500000     0.012416666667     0          
H38      H      0.064000000000     0.687247500000     0.320916666667     0          
Al1      Al     0.000250000000     0.500300000000     0.334133333333     0          
Al2      Al     0.125250000000     0.500300000000     0.334133333333     0          
C3       C      0.040000000000     0.518125000000     0.595666666667     0          
C4       C      0.208750000000     0.732850000000     0.404266666667     0          
C5       C      0.217750000000     0.519200000000     0.533200000000     0          
C6       C      0.032500000000     0.740400000000     0.469066666667     0          
C7       C      0.195250000000     0.506400000000     0.483733333333     0          
C8       C      0.053000000000     0.744100000000     0.516933333333     0          
C9       C      0.019500000000     0.507300000000     0.545466666667     0          
C10      C      0.227500000000     0.737900000000     0.453066666667     0          
C11      C      0.165000000000     0.678625000000     0.595666666667     0          
C12      C      0.083750000000     0.570350000000     0.404266666667     0          
C13      C      0.092750000000     0.630700000000     0.533200000000     0          
C14      C      0.157500000000     0.611400000000     0.469066666667     0          
C15      C      0.070250000000     0.606400000000     0.483733333333     0          
C16      C      0.178000000000     0.643600000000     0.516933333333     0          
C17      C      0.144500000000     0.651800000000     0.545466666667     0          
C18      C      0.102500000000     0.601900000000     0.453066666667     0          
O19      O      0.064000000000     0.722500000000     0.333333333333     0          
O20      O      0.012750000000     0.527300000000     0.624133333333     0          
O21      O      0.235000000000     0.720625000000     0.375000000000     0          
O22      O      0.085000000000     0.501900000000     0.605733333333     0          
O23      O      0.159250000000     0.733600000000     0.389600000000     0          
O24      O      0.189000000000     0.527500000000     0.333333333333     0          
O25      O      0.137750000000     0.690800000000     0.624133333333     0          
O26      O      0.110000000000     0.560625000000     0.375000000000     0          
O27      O      0.210000000000     0.702400000000     0.605733333333     0          
O28      O      0.034250000000     0.558600000000     0.389600000000     0          
H29      H      0.193997500000     0.537750000000     0.559706666667     0          
H30      H      0.060410000000     0.739605000000     0.445930000000     0          
H31      H      0.152347500000     0.511470000000     0.470666666667     0          
H32      H      0.095075000000     0.736122500000     0.528800000000     0          
H33      H      0.068997500000     0.632030000000     0.559706666667     0          
H34      H      0.185410000000     0.594845000000     0.445930000000     0          
H35      H      0.027347500000     0.591530000000     0.470666666667     0          
H36      H      0.220075000000     0.660480000000     0.528800000000     0          
H37      H      0.189000000000     0.562752500000     0.345750000000     0          
H38      H      0.064000000000     0.687247500000     0.654250000000     0          
Al1      Al     0.000250000000     0.500300000000     0.667466666667     0          
Al2      Al     0.125250000000     0.500300000000     0.667466666667     0          
C3       C      0.040000000000     0.518125000000     0.929000000000     0          
C4       C      0.208750000000     0.732850000000     0.737600000000     0          
C5       C      0.217750000000     0.519200000000     0.866533333333     0          
C6       C      0.032500000000     0.740400000000     0.802400000000     0          
C7       C      0.195250000000     0.506400000000     0.817066666667     0          
C8       C      0.053000000000     0.744100000000     0.850266666667     0          
C9       C      0.019500000000     0.507300000000     0.878800000000     0          
C10      C      0.227500000000     0.737900000000     0.786400000000     0          
C11      C      0.165000000000     0.678625000000     0.929000000000     0          
C12      C      0.083750000000     0.570350000000     0.737600000000     0          
C13      C      0.092750000000     0.630700000000     0.866533333333     0          
C14      C      0.157500000000     0.611400000000     0.802400000000     0          
C15      C      0.070250000000     0.606400000000     0.817066666667     0          
C16      C      0.178000000000     0.643600000000     0.850266666667     0          
C17      C      0.144500000000     0.651800000000     0.878800000000     0          
C18      C      0.102500000000     0.601900000000     0.786400000000     0          
O19      O      0.064000000000     0.722500000000     0.666666666667     0          
O20      O      0.012750000000     0.527300000000     0.957466666667     0          
O21      O      0.235000000000     0.720625000000     0.708333333333     0          
O22      O      0.085000000000     0.501900000000     0.939066666667     0          
O23      O      0.159250000000     0.733600000000     0.722933333333     0          
O24      O      0.189000000000     0.527500000000     0.666666666667     0          
O25      O      0.137750000000     0.690800000000     0.957466666667     0          
O26      O      0.110000000000     0.560625000000     0.708333333333     0          
O27      O      0.210000000000     0.702400000000     0.939066666667     0          
O28      O      0.034250000000     0.558600000000     0.722933333333     0          
H29      H      0.193997500000     0.537750000000     0.893040000000     0          
H30      H      0.060410000000     0.739605000000     0.779263333333     0          
H31      H      0.152347500000     0.511470000000     0.804000000000     0          
H32      H      0.095075000000     0.736122500000     0.862133333333     0          
H33      H      0.068997500000     0.632030000000     0.893040000000     0          
H34      H      0.185410000000     0.594845000000     0.779263333333     0          
H35      H      0.027347500000     0.591530000000     0.804000000000     0          
H36      H      0.220075000000     0.660480000000     0.862133333333     0          
H37      H      0.189000000000     0.562752500000     0.679083333333     0          
H38      H      0.064000000000     0.687247500000     0.987583333333     0          
Al1      Al     0.000250000000     0.750300000000     0.000800000000     0          
Al2      Al     0.125250000000     0.750300000000     0.000800000000     0          
C3       C      0.040000000000     0.768125000000     0.262333333333     0          
C4       C      0.208750000000     0.982850000000     0.070933333333     0          
C5       C      0.217750000000     0.769200000000     0.199866666667     0          
C6       C      0.032500000000     0.990400000000     0.135733333333     0          
C7       C      0.195250000000     0.756400000000     0.150400000000     0          
C8       C      0.053000000000     0.994100000000     0.183600000000     0          
C9       C      0.019500000000     0.757300000000     0.212133333333     0          
C10      C      0.227500000000     0.987900000000     0.119733333333     0          
C11      C      0.165000000000     0.928625000000     0.262333333333     0          
C12      C      0.083750000000     0.820350000000     0.070933333333     0          
C13      C      0.092750000000     0.880700000000     0.199866666667     0          
C14      C      0.157500000000     0.861400000000     0.135733333333     0          
C15      C      0.070250000000     0.856400000000     0.150400000000     0          
C16      C      0.178000000000     0.893600000000     0.183600000000     0          
C17      C      0.144500000000     0.901800000000     0.212133333333     0          
C18      C      0.102500000000     0.851900000000     0.119733333333     0          
O19      O      0.064000000000     0.972500000000     0.000000000000     0          
O20      O      0.012750000000     0.777300000000     0.290800000000     0          
O21      O      0.235000000000     0.970625000000     0.041666666667     0          
O22      O      0.085000000000     0.751900000000     0.272400000000     0          
O23      O      0.159250000000     0.983600000000     0.056266666667     0          
O24      O      0.189000000000     0.777500000000     0.000000000000     0          
O25      O      0.137750000000     0.940800000000     0.290800000000     0          
O26      O      0.110000000000     0.810625000000     0.041666666667     0          
O27      O      0.210000000000     0.952400000000     0.272400000000     0          
O28      O      0.034250000000     0.808600000000     0.056266666667     0          
H29      H      0.193997500000     0.787750000000     0.226373333333     0          
H30      H      0.060410000000     0.989605000000     0.112596666667     0          
H31      H      0.152347500000     0.761470000000     0.137333333333     0          
H32      H      0.095075000000     0.986122500000     0.195466666667     0          
H33      H      0.068997500000     0.882030000000     0.226373333333     0          
H34      H      0.185410000000     0.844845000000     0.112596666667     0          
H35      H      0.027347500000     0.841530000000     0.137333333333     0          
H36      H      0.220075000000     0.910480000000     0.195466666667     0          
H37      H      0.189000000000     0.812752500000     0.012416666667     0          
H38      H      0.064000000000     0.937247500000     0.320916666667     0          
Al1      Al     0.000250000000     0.750300000000     0.334133333333     0          
Al2      Al     0.125250000000     0.750300000000     0.334133333333     0          
C3       C      0.040000000000     0.768125000000     0.595666666667     0          
C4       C      0.208750000000     0.982850000000     0.404266666667     0          
C5       C      0.217750000000     0.769200000000     0.533200000000     0          
C6       C      0.032500000000     0.990400000000     0.469066666667     0          
C7       C      0.195250000000     0.756400000000     0.483733333333     0          
C8       C      0.053000000000     0.994100000000     0.516933333333     0          
C9       C      0.019500000000     0.757300000000     0.545466666667     0          
C10      C      0.227500000000     0.987900000000     0.453066666667     0          
C11      C      0.165000000000     0.928625000000     0.595666666667     0          
C12      C      0.083750000000     0.820350000000     0.404266666667     0          
C13      C      0.092750000000     0.880700000000     0.533200000000     0          
C14      C      0.157500000000     0.861400000000     0.469066666667     0          
C15      C      0.070250000000     0.856400000000     0.483733333333     0          
C16      C      0.178000000000     0.893600000000     0.516933333333     0          
C17      C      0.144500000000     0.901800000000     0.545466666667     0          
C18      C      0.102500000000     0.851900000000     0.453066666667     0          
O19      O      0.064000000000     0.972500000000     0.333333333333     0          
O20      O      0.012750000000     0.777300000000     0.624133333333     0          
O21      O      0.235000000000     0.970625000000     0.375000000000     0          
O22      O      0.085000000000     0.751900000000     0.605733333333     0          
O23      O      0.159250000000     0.983600000000     0.389600000000     0          
O24      O      0.189000000000     0.777500000000     0.333333333333     0          
O25      O      0.137750000000     0.940800000000     0.624133333333     0          
O26      O      0.110000000000     0.810625000000     0.375000000000     0          
O27      O      0.210000000000     0.952400000000     0.605733333333     0          
O28      O      0.034250000000     0.808600000000     0.389600000000     0          
H29      H      0.193997500000     0.787750000000     0.559706666667     0          
H30      H      0.060410000000     0.989605000000     0.445930000000     0          
H31      H      0.152347500000     0.761470000000     0.470666666667     0          
H32      H      0.095075000000     0.986122500000     0.528800000000     0          
H33      H      0.068997500000     0.882030000000     0.559706666667     0          
H34      H      0.185410000000     0.844845000000     0.445930000000     0          
H35      H      0.027347500000     0.841530000000     0.470666666667     0          
H36      H      0.220075000000     0.910480000000     0.528800000000     0          
H37      H      0.189000000000     0.812752500000     0.345750000000     0          
H38      H      0.064000000000     0.937247500000     0.654250000000     0          
Al1      Al     0.000250000000     0.750300000000     0.667466666667     0          
Al2      Al     0.125250000000     0.750300000000     0.667466666667     0          
C3       C      0.040000000000     0.768125000000     0.929000000000     0          
C4       C      0.208750000000     0.982850000000     0.737600000000     0          
C5       C      0.217750000000     0.769200000000     0.866533333333     0          
C6       C      0.032500000000     0.990400000000     0.802400000000     0          
C7       C      0.195250000000     0.756400000000     0.817066666667     0          
C8       C      0.053000000000     0.994100000000     0.850266666667     0          
C9       C      0.019500000000     0.757300000000     0.878800000000     0          
C10      C      0.227500000000     0.987900000000     0.786400000000     0          
C11      C      0.165000000000     0.928625000000     0.929000000000     0          
C12      C      0.083750000000     0.820350000000     0.737600000000     0          
C13      C      0.092750000000     0.880700000000     0.866533333333     0          
C14      C      0.157500000000     0.861400000000     0.802400000000     0          
C15      C      0.070250000000     0.856400000000     0.817066666667     0          
C16      C      0.178000000000     0.893600000000     0.850266666667     0          
C17      C      0.144500000000     0.901800000000     0.878800000000     0          
C18      C      0.102500000000     0.851900000000     0.786400000000     0          
O19      O      0.064000000000     0.972500000000     0.666666666667     0          
O20      O      0.012750000000     0.777300000000     0.957466666667     0          
O21      O      0.235000000000     0.970625000000     0.708333333333     0          
O22      O      0.085000000000     0.751900000000     0.939066666667     0          
O23      O      0.159250000000     0.983600000000     0.722933333333     0          
O24      O      0.189000000000     0.777500000000     0.666666666667     0          
O25      O      0.137750000000     0.940800000000     0.957466666667     0          
O26      O      0.110000000000     0.810625000000     0.708333333333     0          
O27      O      0.210000000000     0.952400000000     0.939066666667     0          
O28      O      0.034250000000     0.808600000000     0.722933333333     0          
H29      H      0.193997500000     0.787750000000     0.893040000000     0          
H30      H      0.060410000000     0.989605000000     0.779263333333     0          
H31      H      0.152347500000     0.761470000000     0.804000000000     0          
H32      H      0.095075000000     0.986122500000     0.862133333333     0          
H33      H      0.068997500000     0.882030000000     0.893040000000     0          
H34      H      0.185410000000     0.844845000000     0.779263333333     0          
H35      H      0.027347500000     0.841530000000     0.804000000000     0          
H36      H      0.220075000000     0.910480000000     0.862133333333     0          
H37      H      0.189000000000     0.812752500000     0.679083333333     0          
H38      H      0.064000000000     0.937247500000     0.987583333333     0          
Al1      Al     0.250250000000     0.000300000000     0.000800000000     0          
Al2      Al     0.375250000000     0.000300000000     0.000800000000     0          
C3       C      0.290000000000     0.018125000000     0.262333333333     0          
C4       C      0.458750000000     0.232850000000     0.070933333333     0          
C5       C      0.467750000000     0.019200000000     0.199866666667     0          
C6       C      0.282500000000     0.240400000000     0.135733333333     0          
C7       C      0.445250000000     0.006400000000     0.150400000000     0          
C8       C      0.303000000000     0.244100000000     0.183600000000     0          
C9       C      0.269500000000     0.007300000000     0.212133333333     0          
C10      C      0.477500000000     0.237900000000     0.119733333333     0          
C11      C      0.415000000000     0.178625000000     0.262333333333     0          
C12      C      0.333750000000     0.070350000000     0.070933333333     0          
C13      C      0.342750000000     0.130700000000     0.199866666667     0          
C14      C      0.407500000000     0.111400000000     0.135733333333     0          
C15      C      0.320250000000     0.106400000000     0.150400000000     0          
C16      C      0.428000000000     0.143600000000     0.183600000000     0          
C17      C      0.394500000000     0.151800000000     0.212133333333     0          
C18      C      0.352500000000     0.101900000000     0.119733333333     0          
O19      O      0.314000000000     0.222500000000     0.000000000000     0          
O20      O      0.262750000000     0.027300000000     0.290800000000     0          
O21      O      0.485000000000     0.220625000000     0.041666666667     0          
O22      O      0.335000000000     0.001900000000     0.272400000000     0          
O23      O      0.409250000000     0.233600000000     0.056266666667     0          
O24      O      0.439000000000     0.027500000000     0.000000000000     0          
O25      O      0.387750000000     0.190800000000     0.290800000000     0          
O26      O      0.360000000000     0.060625000000     0.041666666667     0          
O27      O      0.460000000000     0.202400000000     0.272400000000     0          
O28      O      0.284250000000     0.058600000000     0.056266666667     0          
H29      H      0.443997500000     0.037750000000     0.226373333333     0          
H30      H      0.310410000000     0.239605000000     0.112596666667     0          
H31      H      0.402347500000     0.011470000000     0.137333333333     0          
H32      H      0.345075000000     0.236122500000     0.195466666667     0          
H33      H      0.318997500000     0.132030000000     0.226373333333     0          
H34      H      0.435410000000     0.094845000000     0.112596666667     0          
H35      H      0.277347500000     0.091530000000     0.137333333333     0          
H36      H      0.470075000000     0.160480000000     0.195466666667     0          
H37      H      0.439000000000     0.062752500000     0.012416666667     0          
H38      H      0.314000000000     0.187247500000     0.320916666667     0          
Al1      Al     0.250250000000     0.000300000000     0.334133333333     0          
Al2      Al     0.375250000000     0.000300000000     0.334133333333     0          
C3       C      0.290000000000     0.018125000000     0.595666666667     0          
C4       C      0.458750000000     0.232850000000     0.404266666667     0          
C5       C      0.467750000000     0.019200000000     0.533200000000     0          
C6       C      0.282500000000     0.240400000000     0.469066666667     0          
C7       C      0.445250000000     0.006400000000     0.483733333333     0          
C8       C      0.303000000000     0.244100000000     0.516933333333     0          
C9       C      0.269500000000     0.007300000000     0.545466666667     0          
C10      C      0.477500000000     0.237900000000     0.453066666667     0          
C11      C      0.415000000000     0.178625000000     0.595666666667     0          
C12      C      0.333750000000     0.070350000000     0.404266666667     0          
C13      C      0.342750000000     0.130700000000     0.533200000000     0          
C14      C      0.407500000000     0.111400000000     0.469066666667     0          
C15      C      0.320250000000     0.106400000000     0.483733333333     0          
C16      C      0.428000000000     0.143600000000     0.516933333333     0          
C17      C      0.394500000000     0.151800000000     0.545466666667     0          
C18      C      0.352500000000     0.101900000000     0.453066666667     0          
O19      O      0.314000000000     0.222500000000     0.333333333333     0          
O20      O      0.262750000000     0.027300000000     0.624133333333     0          
O21      O      0.485000000000     0.220625000000     0.375000000000     0          
O22      O      0.335000000000     0.001900000000     0.605733333333     0          
O23      O      0.409250000000     0.233600000000     0.389600000000     0          
O24      O      0.439000000000     0.027500000000     0.333333333333     0          
O25      O      0.387750000000     0.190800000000     0.624133333333     0          
O26      O      0.360000000000     0.060625000000     0.375000000000     0          
O27      O      0.460000000000     0.202400000000     0.605733333333     0          
O28      O      0.284250000000     0.058600000000     0.389600000000     0          
H29      H      0.443997500000     0.037750000000     0.559706666667     0          
H30      H      0.310410000000     0.239605000000     0.445930000000     0          
H31      H      0.402347500000     0.011470000000     0.470666666667     0          
H32      H      0.345075000000     0.236122500000     0.528800000000     0          
H33      H      0.318997500000     0.132030000000     0.559706666667     0          
H34      H      0.435410000000     0.094845000000     0.445930000000     0          
H35      H      0.277347500000     0.091530000000     0.470666666667     0          
H36      H      0.470075000000     0.160480000000     0.528800000000     0          
H37      H      0.439000000000     0.062752500000     0.345750000000     0          
H38      H      0.314000000000     0.187247500000     0.654250000000     0          
Al1      Al     0.250250000000     0.000300000000     0.667466666667     0          
Al2      Al     0.375250000000     0.000300000000     0.667466666667     0          
C3       C      0.290000000000     0.018125000000     0.929000000000     0          
C4       C      0.458750000000     0.232850000000     0.737600000000     0          
C5       C      0.467750000000     0.019200000000     0.866533333333     0          
C6       C      0.282500000000     0.240400000000     0.802400000000     0          
C7       C      0.445250000000     0.006400000000     0.817066666667     0          
C8       C      0.303000000000     0.244100000000     0.850266666667     0          
C9       C      0.269500000000     0.007300000000     0.878800000000     0          
C10      C      0.477500000000     0.237900000000     0.786400000000     0          
C11      C      0.415000000000     0.178625000000     0.929000000000     0          
C12      C      0.333750000000     0.070350000000     0.737600000000     0          
C13      C      0.342750000000     0.130700000000     0.866533333333     0          
C14      C      0.407500000000     0.111400000000     0.802400000000     0          
C15      C      0.320250000000     0.106400000000     0.817066666667     0          
C16      C      0.428000000000     0.143600000000     0.850266666667     0          
C17      C      0.394500000000     0.151800000000     0.878800000000     0          
C18      C      0.352500000000     0.101900000000     0.786400000000     0          
O19      O      0.314000000000     0.222500000000     0.666666666667     0          
O20      O      0.262750000000     0.027300000000     0.957466666667     0          
O21      O      0.485000000000     0.220625000000     0.708333333333     0          
O22      O      0.335000000000     0.001900000000     0.939066666667     0          
O23      O      0.409250000000     0.233600000000     0.722933333333     0          
O24      O      0.439000000000     0.027500000000     0.666666666667     0          
O25      O      0.387750000000     0.190800000000     0.957466666667     0          
O26      O      0.360000000000     0.060625000000     0.708333333333     0          
O27      O      0.460000000000     0.202400000000     0.939066666667     0          
O28      O      0.284250000000     0.058600000000     0.722933333333     0          
H29      H      0.443997500000     0.037750000000     0.893040000000     0          
H30      H      0.310410000000     0.239605000000     0.779263333333     0          
H31      H      0.402347500000     0.011470000000     0.804000000000     0          
H32      H      0.345075000000     0.236122500000     0.862133333333     0          
H33      H      0.318997500000     0.132030000000     0.893040000000     0          
H34      H      0.435410000000     0.094845000000     0.779263333333     0          
H35      H      0.277347500000     0.091530000000     0.804000000000     0          
H36      H      0.470075000000     0.160480000000     0.862133333333     0          
H37      H      0.439000000000     0.062752500000     0.679083333333     0          
H38      H      0.314000000000     0.187247500000     0.987583333333     0          
Al1      Al     0.250250000000     0.250300000000     0.000800000000     0          
Al2      Al     0.375250000000     0.250300000000     0.000800000000     0          
C3       C      0.290000000000     0.268125000000     0.262333333333     0          
C4       C      0.458750000000     0.482850000000     0.070933333333     0          
C5       C      0.467750000000     0.269200000000     0.199866666667     0          
C6       C      0.282500000000     0.490400000000     0.135733333333     0          
C7       C      0.445250000000     0.256400000000     0.150400000000     0          
C8       C      0.303000000000     0.494100000000     0.183600000000     0          
C9       C      0.269500000000     0.257300000000     0.212133333333     0          
C10      C      0.477500000000     0.487900000000     0.119733333333     0          
C11      C      0.415000000000     0.428625000000     0.262333333333     0          
C12      C      0.333750000000     0.320350000000     0.070933333333     0          
C13      C      0.342750000000     0.380700000000     0.199866666667     0          
C14      C      0.407500000000     0.361400000000     0.135733333333     0          
C15      C      0.320250000000     0.356400000000     0.150400000000     0          
C16      C      0.428000000000     0.393600000000     0.183600000000     0          
C17      C      0.394500000000     0.401800000000     0.212133333333     0          
C18      C      0.352500000000     0.351900000000     0.119733333333     0          
O19      O      0.314000000000     0.472500000000     0.000000000000     0          
O20      O      0.262750000000     0.277300000000     0.290800000000     0          
O21      O      0.485000000000     0.470625000000     0.041666666667     0          
O22      O      0.335000000000     0.251900000000     0.272400000000     0          
O23      O      0.409250000000     0.483600000000     0.056266666667     0          
O24      O      0.439000000000     0.277500000000     0.000000000000     0          
O25      O      0.387750000000     0.440800000000     0.290800000000     0          
O26      O      0.360000000000     0.310625000000     0.041666666667     0          
O27      O      0.460000000000     0.452400000000     0.272400000000     0          
O28      O      0.284250000000     0.308600000000     0.056266666667     0          
H29      H      0.443997500000     0.287750000000     0.226373333333     0          
H30      H      0.310410000000     0.489605000000     0.112596666667     0          
H31      H      0.402347500000     0.261470000000     0.137333333333     0          
H32      H      0.345075000000     0.486122500000     0.195466666667     0          
H33      H      0.318997500000     0.382030000000     0.226373333333     0          
H34      H      0.435410000000     0.344845000000     0.112596666667     0          
H35      H      0.277347500000     0.341530000000     0.137333333333     0          
H36      H      0.470075000000     0.410480000000     0.195466666667     0          
H37      H      0.439000000000     0.312752500000     0.012416666667     0          
H38      H      0.314000000000     0.437247500000     0.320916666667     0          
Al1      Al     0.250250000000     0.250300000000     0.334133333333     0          
Al2      Al     0.375250000000     0.250300000000     0.334133333333     0          
C3       C      0.290000000000     0.268125000000     0.595666666667     0          
C4       C      0.458750000000     0.482850000000     0.404266666667     0          
C5       C      0.467750000000     0.269200000000     0.533200000000     0          
C6       C      0.282500000000     0.490400000000     0.469066666667     0          
C7       C      0.445250000000     0.256400000000     0.483733333333     0          
C8       C      0.303000000000     0.494100000000     0.516933333333     0          
C9       C      0.269500000000     0.257300000000     0.545466666667     0          
C10      C      0.477500000000     0.487900000000     0.453066666667     0          
C11      C      0.415000000000     0.428625000000     0.595666666667     0          
C12      C      0.333750000000     0.320350000000     0.404266666667     0          
C13      C      0.342750000000     0.380700000000     0.533200000000     0          
C14      C      0.407500000000     0.361400000000     0.469066666667     0          
C15      C      0.320250000000     0.356400000000     0.483733333333     0          
C16      C      0.428000000000     0.393600000000     0.516933333333     0          
C17      C      0.394500000000     0.401800000000     0.545466666667     0          
C18      C      0.352500000000     0.351900000000     0.453066666667     0          
O19      O      0.314000000000     0.472500000000     0.333333333333     0          
O20      O      0.262750000000     0.277300000000     0.624133333333     0          
O21      O      0.485000000000     0.470625000000     0.375000000000     0          
O22      O      0.335000000000     0.251900000000     0.605733333333     0          
O23      O      0.409250000000     0.483600000000     0.389600000000     0          
O24      O      0.439000000000     0.277500000000     0.333333333333     0          
O25      O      0.387750000000     0.440800000000     0.624133333333     0          
O26      O      0.360000000000     0.310625000000     0.375000000000     0          
O27      O      0.460000000000     0.452400000000     0.605733333333     0          
O28      O      0.284250000000     0.308600000000     0.389600000000     0          
H29      H      0.443997500000     0.287750000000     0.559706666667     0          
H30      H      0.310410000000     0.489605000000     0.445930000000     0          
H31      H      0.402347500000     0.261470000000     0.470666666667     0          
H32      H      0.345075000000     0.486122500000     0.528800000000     0          
H33      H      0.318997500000     0.382030000000     0.559706666667     0          
H34      H      0.435410000000     0.344845000000     0.445930000000     0          
H35      H      0.277347500000     0.341530000000     0.470666666667     0          
H36      H      0.470075000000     0.410480000000     0.528800000000     0          
H37      H      0.439000000000     0.312752500000     0.345750000000     0          
H38      H      0.314000000000     0.437247500000     0.654250000000     0          
Al1      Al     0.250250000000     0.250300000000     0.667466666667     0          
Al2      Al     0.375250000000     0.250300000000     0.667466666667     0          
C3       C      0.290000000000     0.268125000000     0.929000000000     0          
C4       C      0.458750000000     0.482850000000     0.737600000000     0          
C5       C      0.467750000000     0.269200000000     0.866533333333     0          
C6       C      0.282500000000     0.490400000000     0.802400000000     0          
C7       C      0.445250000000     0.256400000000     0.817066666667     0          
C8       C      0.303000000000     0.494100000000     0.850266666667     0          
C9       C      0.269500000000     0.257300000000     0.878800000000     0          
C10      C      0.477500000000     0.487900000000     0.786400000000     0          
C11      C      0.415000000000     0.428625000000     0.929000000000     0          
C12      C      0.333750000000     0.320350000000     0.737600000000     0          
C13      C      0.342750000000     0.380700000000     0.866533333333     0          
C14      C      0.407500000000     0.361400000000     0.802400000000     0          
C15      C      0.320250000000     0.356400000000     0.817066666667     0          
C16      C      0.428000000000     0.393600000000     0.850266666667     0          
C17      C      0.394500000000     0.401800000000     0.878800000000     0          
C18      C      0.352500000000     0.351900000000     0.786400000000     0          
O19      O      0.314000000000     0.472500000000     0.666666666667     0          
O20      O      0.262750000000     0.277300000000     0.957466666667     0          
O21      O      0.485000000000     0.470625000000     0.708333333333     0          
O22      O      0.335000000000     0.251900000000     0.939066666667     0          
O23      O      0.409250000000     0.483600000000     0.722933333333     0          
O24      O      0.439000000000     0.277500000000     0.666666666667     0          
O25      O      0.387750000000     0.440800000000     0.957466666667     0          
O26      O      0.360000000000     0.310625000000     0.708333333333     0          
O27      O      0.460000000000     0.452400000000     0.939066666667     0          
O28      O      0.284250000000     0.308600000000     0.722933333333     0          
H29      H      0.443997500000     0.287750000000     0.893040000000     0          
H30      H      0.310410000000     0.489605000000     0.779263333333     0          
H31      H      0.402347500000     0.261470000000     0.804000000000     0          
H32      H      0.345075000000     0.486122500000     0.862133333333     0          
H33      H      0.318997500000     0.382030000000     0.893040000000     0          
H34      H      0.435410000000     0.344845000000     0.779263333333     0          
H35      H      0.277347500000     0.341530000000     0.804000000000     0          
H36      H      0.470075000000     0.410480000000     0.862133333333     0          
H37      H      0.439000000000     0.312752500000     0.679083333333     0          
H38      H      0.314000000000     0.437247500000     0.987583333333     0          
Al1      Al     0.250250000000     0.500300000000     0.000800000000     0          
Al2      Al     0.375250000000     0.500300000000     0.000800000000     0          
C3       C      0.290000000000     0.518125000000     0.262333333333     0          
C4       C      0.458750000000     0.732850000000     0.070933333333     0          
C5       C      0.467750000000     0.519200000000     0.199866666667     0          
C6       C      0.282500000000     0.740400000000     0.135733333333     0          
C7       C      0.445250000000     0.506400000000     0.150400000000     0          
C8       C      0.303000000000     0.744100000000     0.183600000000     0          
C9       C      0.269500000000     0.507300000000     0.212133333333     0          
C10      C      0.477500000000     0.737900000000     0.119733333333     0          
C11      C      0.415000000000     0.678625000000     0.262333333333     0          
C12      C      0.333750000000     0.570350000000     0.070933333333     0          
C13      C      0.342750000000     0.630700000000     0.199866666667     0          
C14      C      0.407500000000     0.611400000000     0.135733333333     0          
C15      C      0.320250000000     0.606400000000     0.150400000000     0          
C16      C      0.428000000000     0.643600000000     0.183600000000     0          
C17      C      0.394500000000     0.651800000000     0.212133333333     0          
C18      C      0.352500000000     0.601900000000     0.119733333333     0          
O19      O      0.314000000000     0.722500000000     0.000000000000     0          
O20      O      0.262750000000     0.527300000000     0.290800000000     0          
O21      O      0.485000000000     0.720625000000     0.041666666667     0          
O22      O      0.335000000000     0.501900000000     0.272400000000     0          
O23      O      0.409250000000     0.733600000000     0.056266666667     0          
O24      O      0.439000000000     0.527500000000     0.000000000000     0          
O25      O      0.387750000000     0.690800000000     0.290800000000     0          
O26      O      0.360000000000     0.560625000000     0.041666666667     0          
O27      O      0.460000000000     0.702400000000     0.272400000000     0          
O28      O      0.284250000000     0.558600000000     0.056266666667     0          
H29      H      0.443997500000     0.537750000000     0.226373333333     0          
H30      H      0.310410000000     0.739605000000     0.112596666667     0          
H31      H      0.402347500000     0.511470000000     0.137333333333     0          
H32      H      0.345075000000     0.736122500000     0.195466666667     0          
H33      H      0.318997500000     0.632030000000     0.226373333333     0          
H34      H      0.435410000000     0.594845000000     0.112596666667     0          
H35      H      0.277347500000     0.591530000000     0.137333333333     0          
H36      H      0.470075000000     0.660480000000     0.195466666667     0          
H37      H      0.439000000000     0.562752500000     0.012416666667     0          
H38      H      0.314000000000     0.687247500000     0.320916666667     0          
Al1      Al     0.250250000000     0.500300000000     0.334133333333     0          
Al2      Al     0.375250000000     0.500300000000     0.334133333333     0          
C3       C      0.290000000000     0.518125000000     0.595666666667     0          
C4       C      0.458750000000     0.732850000000     0.404266666667     0          
C5       C      0.467750000000     0.519200000000     0.533200000000     0          
C6       C      0.282500000000     0.740400000000     0.469066666667     0          
C7       C      0.445250000000     0.506400000000     0.483733333333     0          
C8       C      0.303000000000     0.744100000000     0.516933333333     0          
C9       C      0.269500000000     0.507300000000     0.545466666667     0          
C10      C      0.477500000000     0.737900000000     0.453066666667     0          
C11      C      0.415000000000     0.678625000000     0.595666666667     0          
C12      C      0.333750000000     0.570350000000     0.404266666667     0          
C13      C      0.342750000000     0.630700000000     0.533200000000     0          
C14      C      0.407500000000     0.611400000000     0.469066666667     0          
C15      C      0.320250000000     0.606400000000     0.483733333333     0          
C16      C      0.428000000000     0.643600000000     0.516933333333     0          
C17      C      0.394500000000     0.651800000000     0.545466666667     0          
C18      C      0.352500000000     0.601900000000     0.453066666667     0          
O19      O      0.314000000000     0.722500000000     0.333333333333     0          
O20      O      0.262750000000     0.527300000000     0.624133333333     0          
O21      O      0.485000000000     0.720625000000     0.375000000000     0          
O22      O      0.335000000000     0.501900000000     0.605733333333     0          
O23      O      0.409250000000     0.733600000000     0.389600000000     0          
O24      O      0.439000000000     0.527500000000     0.333333333333     0          
O25      O      0.387750000000     0.690800000000     0.624133333333     0          
O26      O      0.360000000000     0.560625000000     0.375000000000     0          
O27      O      0.460000000000     0.702400000000     0.605733333333     0          
O28      O      0.284250000000     0.558600000000     0.389600000000     0          
H29      H      0.443997500000     0.537750000000     0.559706666667     0          
H30      H      0.310410000000     0.739605000000     0.445930000000     0          
H31      H      0.402347500000     0.511470000000     0.470666666667     0          
H32      H      0.345075000000     0.736122500000     0.528800000000     0          
H33      H      0.318997500000     0.632030000000     0.559706666667     0          
H34      H      0.435410000000     0.594845000000     0.445930000000     0          
H35      H      0.277347500000     0.591530000000     0.470666666667     0          
H36      H      0.470075000000     0.660480000000     0.528800000000     0          
H37      H      0.439000000000     0.562752500000     0.345750000000     0          
H38      H      0.314000000000     0.687247500000     0.654250000000     0          
Al1      Al     0.250250000000     0.500300000000     0.667466666667     0          
Al2      Al     0.375250000000     0.500300000000     0.667466666667     0          
C3       C      0.290000000000     0.518125000000     0.929000000000     0          
C4       C      0.458750000000     0.732850000000     0.737600000000     0          
C5       C      0.467750000000     0.519200000000     0.866533333333     0          
C6       C      0.282500000000     0.740400000000     0.802400000000     0          
C7       C      0.445250000000     0.506400000000     0.817066666667     0          
C8       C      0.303000000000     0.744100000000     0.850266666667     0          
C9       C      0.269500000000     0.507300000000     0.878800000000     0          
C10      C      0.477500000000     0.737900000000     0.786400000000     0          
C11      C      0.415000000000     0.678625000000     0.929000000000     0          
C12      C      0.333750000000     0.570350000000     0.737600000000     0          
C13      C      0.342750000000     0.630700000000     0.866533333333     0          
C14      C      0.407500000000     0.611400000000     0.802400000000     0          
C15      C      0.320250000000     0.606400000000     0.817066666667     0          
C16      C      0.428000000000     0.643600000000     0.850266666667     0          
C17      C      0.394500000000     0.651800000000     0.878800000000     0          
C18      C      0.352500000000     0.601900000000     0.786400000000     0          
O19      O      0.314000000000     0.722500000000     0.666666666667     0          
O20      O      0.262750000000     0.527300000000     0.957466666667     0          
O21      O      0.485000000000     0.720625000000     0.708333333333     0          
O22      O      0.335000000000     0.501900000000     0.939066666667     0          
O23      O      0.409250000000     0.733600000000     0.722933333333     0          
O24      O      0.439000000000     0.527500000000     0.666666666667     0          
O25      O      0.387750000000     0.690800000000     0.957466666667     0          
O26      O      0.360000000000     0.560625000000     0.708333333333     0          
O27      O      0.460000000000     0.702400000000     0.939066666667     0          
O28      O      0.284250000000     0.558600000000     0.722933333333     0          
H29      H      0.443997500000     0.537750000000     0.893040000000     0          
H30      H      0.310410000000     0.739605000000     0.779263333333     0          
H31      H      0.402347500000     0.511470000000     0.804000000000     0          
H32      H      0.345075000000     0.736122500000     0.862133333333     0          
H33      H      0.318997500000     0.632030000000     0.893040000000     0          
H34      H      0.435410000000     0.594845000000     0.779263333333     0          
H35      H      0.277347500000     0.591530000000     0.804000000000     0          
H36      H      0.470075000000     0.660480000000     0.862133333333     0          
H37      H      0.439000000000     0.562752500000     0.679083333333     0          
H38      H      0.314000000000     0.687247500000     0.987583333333     0          
Al1      Al     0.250250000000     0.750300000000     0.000800000000     0          
Al2      Al     0.375250000000     0.750300000000     0.000800000000     0          
C3       C      0.290000000000     0.768125000000     0.262333333333     0          
C4       C      0.458750000000     0.982850000000     0.070933333333     0          
C5       C      0.467750000000     0.769200000000     0.199866666667     0          
C6       C      0.282500000000     0.990400000000     0.135733333333     0          
C7       C      0.445250000000     0.756400000000     0.150400000000     0          
C8       C      0.303000000000     0.994100000000     0.183600000000     0          
C9       C      0.269500000000     0.757300000000     0.212133333333     0          
C10      C      0.477500000000     0.987900000000     0.119733333333     0          
C11      C      0.415000000000     0.928625000000     0.262333333333     0          
C12      C      0.333750000000     0.820350000000     0.070933333333     0          
C13      C      0.342750000000     0.880700000000     0.199866666667     0          
C14      C      0.407500000000     0.861400000000     0.135733333333     0          
C15      C      0.320250000000     0.856400000000     0.150400000000     0          
C16      C      0.428000000000     0.893600000000     0.183600000000     0          
C17      C      0.394500000000     0.901800000000     0.212133333333     0          
C18      C      0.352500000000     0.851900000000     0.119733333333     0          
O19      O      0.314000000000     0.972500000000     0.000000000000     0          
O20      O      0.262750000000     0.777300000000     0.290800000000     0          
O21      O      0.485000000000     0.970625000000     0.041666666667     0          
O22      O      0.335000000000     0.751900000000     0.272400000000     0          
O23      O      0.409250000000     0.983600000000     0.056266666667     0          
O24      O      0.439000000000     0.777500000000     0.000000000000     0          
O25      O      0.387750000000     0.940800000000     0.290800000000     0          
O26      O      0.360000000000     0.810625000000     0.041666666667     0          
O27      O      0.460000000000     0.952400000000     0.272400000000     0          
O28      O      0.284250000000     0.808600000000     0.056266666667     0          
H29      H      0.443997500000     0.787750000000     0.226373333333     0          
H30      H      0.310410000000     0.989605000000     0.112596666667     0          
H31      H      0.402347500000     0.761470000000     0.137333333333     0          
H32      H      0.345075000000     0.986122500000     0.195466666667     0          
H33      H      0.318997500000     0.882030000000     0.226373333333     0          
H34      H      0.435410000000     0.844845000000     0.112596666667     0          
H35      H      0.277347500000     0.841530000000     0.137333333333     0          
H36      H      0.470075000000     0.910480000000     0.195466666667     0          
H37      H      0.439000000000     0.812752500000     0.012416666667     0          
H38      H      0.314000000000     0.937247500000     0.320916666667     0          
Al1      Al     0.250250000000     0.750300000000     0.334133333333     0          
Al2      Al     0.375250000000     0.750300000000     0.334133333333     0          
C3       C      0.290000000000     0.768125000000     0.595666666667     0          
C4       C      0.458750000000     0.982850000000     0.404266666667     0          
C5       C      0.467750000000     0.769200000000     0.533200000000     0          
C6       C      0.282500000000     0.990400000000     0.469066666667     0          
C7       C      0.445250000000     0.756400000000     0.483733333333     0          
C8       C      0.303000000000     0.994100000000     0.516933333333     0          
C9       C      0.269500000000     0.757300000000     0.545466666667     0          
C10      C      0.477500000000     0.987900000000     0.453066666667     0          
C11      C      0.415000000000     0.928625000000     0.595666666667     0          
C12      C      0.333750000000     0.820350000000     0.404266666667     0          
C13      C      0.342750000000     0.880700000000     0.533200000000     0          
C14      C      0.407500000000     0.861400000000     0.469066666667     0          
C15      C      0.320250000000     0.856400000000     0.483733333333     0          
C16      C      0.428000000000     0.893600000000     0.516933333333     0          
C17      C      0.394500000000     0.901800000000     0.545466666667     0          
C18      C      0.352500000000     0.851900000000     0.453066666667     0          
O19      O      0.314000000000     0.972500000000     0.333333333333     0          
O20      O      0.262750000000     0.777300000000     0.624133333333     0          
O21      O      0.485000000000     0.970625000000     0.375000000000     0          
O22      O      0.335000000000     0.751900000000     0.605733333333     0          
O23      O      0.409250000000     0.983600000000     0.389600000000     0          
O24      O      0.439000000000     0.777500000000     0.333333333333     0          
O25      O      0.387750000000     0.940800000000     0.624133333333     0          
O26      O      0.360000000000     0.810625000000     0.375000000000     0          
O27      O      0.460000000000     0.952400000000     0.605733333333     0          
O28      O      0.284250000000     0.808600000000     0.389600000000     0          
H29      H      0.443997500000     0.787750000000     0.559706666667     0          
H30      H      0.310410000000     0.989605000000     0.445930000000     0          
H31      H      0.402347500000     0.761470000000     0.470666666667     0          
H32      H      0.345075000000     0.986122500000     0.528800000000     0          
H33      H      0.318997500000     0.882030000000     0.559706666667     0          
H34      H      0.435410000000     0.844845000000     0.445930000000     0          
H35      H      0.277347500000     0.841530000000     0.470666666667     0          
H36      H      0.470075000000     0.910480000000     0.528800000000     0          
H37      H      0.439000000000     0.812752500000     0.345750000000     0          
H38      H      0.314000000000     0.937247500000     0.654250000000     0          
Al1      Al     0.250250000000     0.750300000000     0.667466666667     0          
Al2      Al     0.375250000000     0.750300000000     0.667466666667     0          
C3       C      0.290000000000     0.768125000000     0.929000000000     0          
C4       C      0.458750000000     0.982850000000     0.737600000000     0          
C5       C      0.467750000000     0.769200000000     0.866533333333     0          
C6       C      0.282500000000     0.990400000000     0.802400000000     0          
C7       C      0.445250000000     0.756400000000     0.817066666667     0          
C8       C      0.303000000000     0.994100000000     0.850266666667     0          
C9       C      0.269500000000     0.757300000000     0.878800000000     0          
C10      C      0.477500000000     0.987900000000     0.786400000000     0          
C11      C      0.415000000000     0.928625000000     0.929000000000     0          
C12      C      0.333750000000     0.820350000000     0.737600000000     0          
C13      C      0.342750000000     0.880700000000     0.866533333333     0          
C14      C      0.407500000000     0.861400000000     0.802400000000     0          
C15      C      0.320250000000     0.856400000000     0.817066666667     0          
C16      C      0.428000000000     0.893600000000     0.850266666667     0          
C17      C      0.394500000000     0.901800000000     0.878800000000     0          
C18      C      0.352500000000     0.851900000000     0.786400000000     0          
O19      O      0.314000000000     0.972500000000     0.666666666667     0          
O20      O      0.262750000000     0.777300000000     0.957466666667     0          
O21      O      0.485000000000     0.970625000000     0.708333333333     0          
O22      O      0.335000000000     0.751900000000     0.939066666667     0          
O23      O      0.409250000000     0.983600000000     0.722933333333     0          
O24      O      0.439000000000     0.777500000000     0.666666666667     0          
O25      O      0.387750000000     0.940800000000     0.957466666667     0          
O26      O      0.360000000000     0.810625000000     0.708333333333     0          
O27      O      0.460000000000     0.952400000000     0.939066666667     0          
O28      O      0.284250000000     0.808600000000     0.722933333333     0          
H29      H      0.443997500000     0.787750000000     0.893040000000     0          
H30      H      0.310410000000     0.989605000000     0.779263333333     0          
H31      H      0.402347500000     0.761470000000     0.804000000000     0          
H32      H      0.345075000000     0.986122500000     0.862133333333     0          
H33      H      0.318997500000     0.882030000000     0.893040000000     0          
H34      H      0.435410000000     0.844845000000     0.779263333333     0          
H35      H      0.277347500000     0.841530000000     0.804000000000     0          
H36      H      0.470075000000     0.910480000000     0.862133333333     0          
H37      H      0.439000000000     0.812752500000     0.679083333333     0          
H38      H      0.314000000000     0.937247500000     0.987583333333     0          
Al1      Al     0.500250000000     0.000300000000     0.000800000000     0          
Al2      Al     0.625250000000     0.000300000000     0.000800000000     0          
C3       C      0.540000000000     0.018125000000     0.262333333333     0          
C4       C      0.708750000000     0.232850000000     0.070933333333     0          
C5       C      0.717750000000     0.019200000000     0.199866666667     0          
C6       C      0.532500000000     0.240400000000     0.135733333333     0          
C7       C      0.695250000000     0.006400000000     0.150400000000     0          
C8       C      0.553000000000     0.244100000000     0.183600000000     0          
C9       C      0.519500000000     0.007300000000     0.212133333333     0          
C10      C      0.727500000000     0.237900000000     0.119733333333     0          
C11      C      0.665000000000     0.178625000000     0.262333333333     0          
C12      C      0.583750000000     0.070350000000     0.070933333333     0          
C13      C      0.592750000000     0.130700000000     0.199866666667     0          
C14      C      0.657500000000     0.111400000000     0.135733333333     0          
C15      C      0.570250000000     0.106400000000     0.150400000000     0          
C16      C      0.678000000000     0.143600000000     0.183600000000     0          
C17      C      0.644500000000     0.151800000000     0.212133333333     0          
C18      C      0.602500000000     0.101900000000     0.119733333333     0          
O19      O      0.564000000000     0.222500000000     0.000000000000     0          
O20      O      0.512750000000     0.027300000000     0.290800000000     0          
O21      O      0.735000000000     0.220625000000     0.041666666667     0          
O22      O      0.585000000000     0.001900000000     0.272400000000     0          
O23      O      0.659250000000     0.233600000000     0.056266666667     0          
O24      O      0.689000000000     0.027500000000     0.000000000000     0          
O25      O      0.637750000000     0.190800000000     0.290800000000     0          
O26      O      0.610000000000     0.060625000000     0.041666666667     0          
O27      O      0.710000000000     0.202400000000     0.272400000000     0          
O28      O      0.534250000000     0.058600000000     0.056266666667     0          
H29      H      0.693997500000     0.037750000000     0.226373333333     0          
H30      H      0.560410000000     0.239605000000     0.112596666667     0          
H31      H      0.652347500000     0.011470000000     0.137333333333     0          
H32      H      0.595075000000     0.236122500000     0.195466666667     0          
H33      H      0.568997500000     0.132030000000     0.226373333333     0          
H34      H      0.685410000000     0.094845000000     0.112596666667     0          
H35      H      0.527347500000     0.091530000000     0.137333333333     0          
H36      H      0.720075000000     0.160480000000     0.195466666667     0          
H37      H      0.689000000000     0.062752500000     0.012416666667     0          
H38      H      0.564000000000     0.187247500000     0.320916666667     0          
Al1      Al     0.500250000000     0.000300000000     0.334133333333     0          
Al2      Al     0.625250000000     0.000300000000     0.334133333333     0          
C3       C      0.540000000000     0.018125000000     0.595666666667     0          
C4       C      0.708750000000     0.232850000000     0.404266666667     0          
C5       C      0.717750000000     0.019200000000     0.533200000000     0          
C6       C      0.532500000000     0.240400000000     0.469066666667     0          
C7       C      0.695250000000     0.006400000000     0.483733333333     0          
C8       C      0.553000000000     0.244100000000     0.516933333333     0          
C9       C      0.519500000000     0.007300000000     0.545466666667     0          
C10      C      0.727500000000     0.237900000000     0.453066666667     0          
C11      C      0.665000000000     0.178625000000     0.595666666667     0          
C12      C      0.583750000000     0.070350000000     0.404266666667     0          
C13      C      0.592750000000     0.130700000000     0.533200000000     0          
C14      C      0.657500000000     0.111400000000     0.469066666667     0          
C15      C      0.570250000000     0.106400000000     0.483733333333     0          
C16      C      0.678000000000     0.143600000000     0.516933333333     0          
C17      C      0.644500000000     0.151800000000     0.545466666667     0          
C18      C      0.602500000000     0.101900000000     0.453066666667     0          
O19      O      0.564000000000     0.222500000000     0.333333333333     0          
O20      O      0.512750000000     0.027300000000     0.624133333333     0          
O21      O      0.735000000000     0.220625000000     0.375000000000     0          
O22      O      0.585000000000     0.001900000000     0.605733333333     0          
O23      O      0.659250000000     0.233600000000     0.389600000000     0          
O24      O      0.689000000000     0.027500000000     0.333333333333     0          
O25      O      0.637750000000     0.190800000000     0.624133333333     0          
O26      O      0.610000000000     0.060625000000     0.375000000000     0          
O27      O      0.710000000000     0.202400000000     0.605733333333     0          
O28      O      0.534250000000     0.058600000000     0.389600000000     0          
H29      H      0.693997500000     0.037750000000     0.559706666667     0          
H30      H      0.560410000000     0.239605000000     0.445930000000     0          
H31      H      0.652347500000     0.011470000000     0.470666666667     0          
H32      H      0.595075000000     0.236122500000     0.528800000000     0          
H33      H      0.568997500000     0.132030000000     0.559706666667     0          
H34      H      0.685410000000     0.094845000000     0.445930000000     0          
H35      H      0.527347500000     0.091530000000     0.470666666667     0          
H36      H      0.720075000000     0.160480000000     0.528800000000     0          
H37      H      0.689000000000     0.062752500000     0.345750000000     0          
H38      H      0.564000000000     0.187247500000     0.654250000000     0          
Al1      Al     0.500250000000     0.000300000000     0.667466666667     0          
Al2      Al     0.625250000000     0.000300000000     0.667466666667     0          
C3       C      0.540000000000     0.018125000000     0.929000000000     0          
C4       C      0.708750000000     0.232850000000     0.737600000000     0          
C5       C      0.717750000000     0.019200000000     0.866533333333     0          
C6       C      0.532500000000     0.240400000000     0.802400000000     0          
C7       C      0.695250000000     0.006400000000     0.817066666667     0          
C8       C      0.553000000000     0.244100000000     0.850266666667     0          
C9       C      0.519500000000     0.007300000000     0.878800000000     0          
C10      C      0.727500000000     0.237900000000     0.786400000000     0          
C11      C      0.665000000000     0.178625000000     0.929000000000     0          
C12      C      0.583750000000     0.070350000000     0.737600000000     0          
C13      C      0.592750000000     0.130700000000     0.866533333333     0          
C14      C      0.657500000000     0.111400000000     0.802400000000     0          
C15      C      0.570250000000     0.106400000000     0.817066666667     0          
C16      C      0.678000000000     0.143600000000     0.850266666667     0          
C17      C      0.644500000000     0.151800000000     0.878800000000     0          
C18      C      0.602500000000     0.101900000000     0.786400000000     0          
O19      O      0.564000000000     0.222500000000     0.666666666667     0          
O20      O      0.512750000000     0.027300000000     0.957466666667     0          
O21      O      0.735000000000     0.220625000000     0.708333333333     0          
O22      O      0.585000000000     0.001900000000     0.939066666667     0          
O23      O      0.659250000000     0.233600000000     0.722933333333     0          
O24      O      0.689000000000     0.027500000000     0.666666666667     0          
O25      O      0.637750000000     0.190800000000     0.957466666667     0          
O26      O      0.610000000000     0.060625000000     0.708333333333     0          
O27      O      0.710000000000     0.202400000000     0.939066666667     0          
O28      O      0.534250000000     0.058600000000     0.722933333333     0          
H29      H      0.693997500000     0.037750000000     0.893040000000     0          
H30      H      0.560410000000     0.239605000000     0.779263333333     0          
H31      H      0.652347500000     0.011470000000     0.804000000000     0          
H32      H      0.595075000000     0.236122500000     0.862133333333     0          
H33      H      0.568997500000     0.132030000000     0.893040000000     0          
H34      H      0.685410000000     0.094845000000     0.779263333333     0          
H35      H      0.527347500000     0.091530000000     0.804000000000     0          
H36      H      0.720075000000     0.160480000000     0.862133333333     0          
H37      H      0.689000000000     0.062752500000     0.679083333333     0          
H38      H      0.564000000000     0.187247500000     0.987583333333     0          
Al1      Al     0.500250000000     0.250300000000     0.000800000000     0          
Al2      Al     0.625250000000     0.250300000000     0.000800000000     0          
C3       C      0.540000000000     0.268125000000     0.262333333333     0          
C4       C      0.708750000000     0.482850000000     0.070933333333     0          
C5       C      0.717750000000     0.269200000000     0.199866666667     0          
C6       C      0.532500000000     0.490400000000     0.135733333333     0          
C7       C      0.695250000000     0.256400000000     0.150400000000     0          
C8       C      0.553000000000     0.494100000000     0.183600000000     0          
C9       C      0.519500000000     0.257300000000     0.212133333333     0          
C10      C      0.727500000000     0.487900000000     0.119733333333     0          
C11      C      0.665000000000     0.428625000000     0.262333333333     0          
C12      C      0.583750000000     0.320350000000     0.070933333333     0          
C13      C      0.592750000000     0.380700000000     0.199866666667     0          
C14      C      0.657500000000     0.361400000000     0.135733333333     0          
C15      C      0.570250000000     0.356400000000     0.150400000000     0          
C16      C      0.678000000000     0.393600000000     0.183600000000     0          
C17      C      0.644500000000     0.401800000000     0.212133333333     0          
C18      C      0.602500000000     0.351900000000     0.119733333333     0          
O19      O      0.564000000000     0.472500000000     0.000000000000     0          
O20      O      0.512750000000     0.277300000000     0.290800000000     0          
O21      O      0.735000000000     0.470625000000     0.041666666667     0          
O22      O      0.585000000000     0.251900000000     0.272400000000     0          
O23      O      0.659250000000     0.483600000000     0.056266666667     0          
O24      O      0.689000000000     0.277500000000     0.000000000000     0          
O25      O      0.637750000000     0.440800000000     0.290800000000     0          
O26      O      0.610000000000     0.310625000000     0.041666666667     0          
O27      O      0.710000000000     0.452400000000     0.272400000000     0          
O28      O      0.534250000000     0.308600000000     0.056266666667     0          
H29      H      0.693997500000     0.287750000000     0.226373333333     0          
H30      H      0.560410000000     0.489605000000     0.112596666667     0          
H31      H      0.652347500000     0.261470000000     0.137333333333     0          
H32      H      0.595075000000     0.486122500000     0.195466666667     0          
H33      H      0.568997500000     0.382030000000     0.226373333333     0          
H34      H      0.685410000000     0.344845000000     0.112596666667     0          
H35      H      0.527347500000     0.341530000000     0.137333333333     0          
H36      H      0.720075000000     0.410480000000     0.195466666667     0          
H37      H      0.689000000000     0.312752500000     0.012416666667     0          
H38      H      0.564000000000     0.437247500000     0.320916666667     0          
Al1      Al     0.500250000000     0.250300000000     0.334133333333     0          
Al2      Al     0.625250000000     0.250300000000     0.334133333333     0          
C3       C      0.540000000000     0.268125000000     0.595666666667     0          
C4       C      0.708750000000     0.482850000000     0.404266666667     0          
C5       C      0.717750000000     0.269200000000     0.533200000000     0          
C6       C      0.532500000000     0.490400000000     0.469066666667     0          
C7       C      0.695250000000     0.256400000000     0.483733333333     0          
C8       C      0.553000000000     0.494100000000     0.516933333333     0          
C9       C      0.519500000000     0.257300000000     0.545466666667     0          
C10      C      0.727500000000     0.487900000000     0.453066666667     0          
C11      C      0.665000000000     0.428625000000     0.595666666667     0          
C12      C      0.583750000000     0.320350000000     0.404266666667     0          
C13      C      0.592750000000     0.380700000000     0.533200000000     0          
C14      C      0.657500000000     0.361400000000     0.469066666667     0          
C15      C      0.570250000000     0.356400000000     0.483733333333     0          
C16      C      0.678000000000     0.393600000000     0.516933333333     0          
C17      C      0.644500000000     0.401800000000     0.545466666667     0          
C18      C      0.602500000000     0.351900000000     0.453066666667     0          
O19      O      0.564000000000     0.472500000000     0.333333333333     0          
O20      O      0.512750000000     0.277300000000     0.624133333333     0          
O21      O      0.735000000000     0.470625000000     0.375000000000     0          
O22      O      0.585000000000     0.251900000000     0.605733333333     0          
O23      O      0.659250000000     0.483600000000     0.389600000000     0          
O24      O      0.689000000000     0.277500000000     0.333333333333     0          
O25      O      0.637750000000     0.440800000000     0.624133333333     0          
O26      O      0.610000000000     0.310625000000     0.375000000000     0          
O27      O      0.710000000000     0.452400000000     0.605733333333     0          
O28      O      0.534250000000     0.308600000000     0.389600000000     0          
H29      H      0.693997500000     0.287750000000     0.559706666667     0          
H30      H      0.560410000000     0.489605000000     0.445930000000     0          
H31      H      0.652347500000     0.261470000000     0.470666666667     0          
H32      H      0.595075000000     0.486122500000     0.528800000000     0          
H33      H      0.568997500000     0.382030000000     0.559706666667     0          
H34      H      0.685410000000     0.344845000000     0.445930000000     0          
H35      H      0.527347500000     0.341530000000     0.470666666667     0          
H36      H      0.720075000000     0.410480000000     0.528800000000     0          
H37      H      0.689000000000     0.312752500000     0.345750000000     0          
H38      H      0.564000000000     0.437247500000     0.654250000000     0          
Al1      Al     0.500250000000     0.250300000000     0.667466666667     0          
Al2      Al     0.625250000000     0.250300000000     0.667466666667     0          
C3       C      0.540000000000     0.268125000000     0.929000000000     0          
C4       C      0.708750000000     0.482850000000     0.737600000000     0          
C5       C      0.717750000000     0.269200000000     0.866533333333     0          
C6       C      0.532500000000     0.490400000000     0.802400000000     0          
C7       C      0.695250000000     0.256400000000     0.817066666667     0          
C8       C      0.553000000000     0.494100000000     0.850266666667     0          
C9       C      0.519500000000     0.257300000000     0.878800000000     0          
C10      C      0.727500000000     0.487900000000     0.786400000000     0          
C11      C      0.665000000000     0.428625000000     0.929000000000     0          
C12      C      0.583750000000     0.320350000000     0.737600000000     0          
C13      C      0.592750000000     0.380700000000     0.866533333333     0          
C14      C      0.657500000000     0.361400000000     0.802400000000     0          
C15      C      0.570250000000     0.356400000000     0.817066666667     0          
C16      C      0.678000000000     0.393600000000     0.850266666667     0          
C17      C      0.644500000000     0.401800000000     0.878800000000     0          
C18      C      0.602500000000     0.351900000000     0.786400000000     0          
O19      O      0.564000000000     0.472500000000     0.666666666667     0          
O20      O      0.512750000000     0.277300000000     0.957466666667     0          
O21      O      0.735000000000     0.470625000000     0.708333333333     0          
O22      O      0.585000000000     0.251900000000     0.939066666667     0          
O23      O      0.659250000000     0.483600000000     0.722933333333     0          
O24      O      0.689000000000     0.277500000000     0.666666666667     0          
O25      O      0.637750000000     0.440800000000     0.957466666667     0          
O26      O      0.610000000000     0.310625000000     0.708333333333     0          
O27      O      0.710000000000     0.452400000000     0.939066666667     0          
O28      O      0.534250000000     0.308600000000     0.722933333333     0          
H29      H      0.693997500000     0.287750000000     0.893040000000     0          
H30      H      0.560410000000     0.489605000000     0.779263333333     0          
H31      H      0.652347500000     0.261470000000     0.804000000000     0          
H32      H      0.595075000000     0.486122500000     0.862133333333     0          
H33      H      0.568997500000     0.382030000000     0.893040000000     0          
H34      H      0.685410000000     0.344845000000     0.779263333333     0          
H35      H      0.527347500000     0.341530000000     0.804000000000     0          
H36      H      0.720075000000     0.410480000000     0.862133333333     0          
H37      H      0.689000000000     0.312752500000     0.679083333333     0          
H38      H      0.564000000000     0.437247500000     0.987583333333     0          
Al1      Al     0.500250000000     0.500300000000     0.000800000000     0          
Al2      Al     0.625250000000     0.500300000000     0.000800000000     0          
C3       C      0.540000000000     0.518125000000     0.262333333333     0          
C4       C      0.708750000000     0.732850000000     0.070933333333     0          
C5       C      0.717750000000     0.519200000000     0.199866666667     0          
C6       C      0.532500000000     0.740400000000     0.135733333333     0          
C7       C      0.695250000000     0.506400000000     0.150400000000     0          
C8       C      0.553000000000     0.744100000000     0.183600000000     0          
C9       C      0.519500000000     0.507300000000     0.212133333333     0          
C10      C      0.727500000000     0.737900000000     0.119733333333     0          
C11      C      0.665000000000     0.678625000000     0.262333333333     0          
C12      C      0.583750000000     0.570350000000     0.070933333333     0          
C13      C      0.592750000000     0.630700000000     0.199866666667     0          
C14      C      0.657500000000     0.611400000000     0.135733333333     0          
C15      C      0.570250000000     0.606400000000     0.150400000000     0          
C16      C      0.678000000000     0.643600000000     0.183600000000     0          
C17      C      0.644500000000     0.651800000000     0.212133333333     0          
C18      C      0.602500000000     0.601900000000     0.119733333333     0          
O19      O      0.564000000000     0.722500000000     0.000000000000     0          
O20      O      0.512750000000     0.527300000000     0.290800000000     0          
O21      O      0.735000000000     0.720625000000     0.041666666667     0          
O22      O      0.585000000000     0.501900000000     0.272400000000     0          
O23      O      0.659250000000     0.733600000000     0.056266666667     0          
O24      O      0.689000000000     0.527500000000     0.000000000000     0          
O25      O      0.637750000000     0.690800000000     0.290800000000     0          
O26      O      0.610000000000     0.560625000000     0.041666666667     0          
O27      O      0.710000000000     0.702400000000     0.272400000000     0          
O28      O      0.534250000000     0.558600000000     0.056266666667     0          
H29      H      0.693997500000     0.537750000000     0.226373333333     0          
H30      H      0.560410000000     0.739605000000     0.112596666667     0          
H31      H      0.652347500000     0.511470000000     0.137333333333     0          
H32      H      0.595075000000     0.736122500000     0.195466666667     0          
H33      H      0.568997500000     0.632030000000     0.226373333333     0          
H34      H      0.685410000000     0.594845000000     0.112596666667     0          
H35      H      0.527347500000     0.591530000000     0.137333333333     0          
H36      H      0.720075000000     0.660480000000     0.195466666667     0          
H37      H      0.689000000000     0.562752500000     0.012416666667     0          
H38      H      0.564000000000     0.687247500000     0.320916666667     0          
Al1      Al     0.500250000000     0.500300000000     0.334133333333     0          
Al2      Al     0.625250000000     0.500300000000     0.334133333333     0          
C3       C      0.540000000000     0.518125000000     0.595666666667     0          
C4       C      0.708750000000     0.732850000000     0.404266666667     0          
C5       C      0.717750000000     0.519200000000     0.533200000000     0          
C6       C      0.532500000000     0.740400000000     0.469066666667     0          
C7       C      0.695250000000     0.506400000000     0.483733333333     0          
C8       C      0.553000000000     0.744100000000     0.516933333333     0          
C9       C      0.519500000000     0.507300000000     0.545466666667     0          
C10      C      0.727500000000     0.737900000000     0.453066666667     0          
C11      C      0.665000000000     0.678625000000     0.595666666667     0          
C12      C      0.583750000000     0.570350000000     0.404266666667     0          
C13      C      0.592750000000     0.630700000000     0.533200000000     0          
C14      C      0.657500000000     0.611400000000     0.469066666667     0          
C15      C      0.570250000000     0.606400000000     0.483733333333     0          
C16      C      0.678000000000     0.643600000000     0.516933333333     0          
C17      C      0.644500000000     0.651800000000     0.545466666667     0          
C18      C      0.602500000000     0.601900000000     0.453066666667     0          
O19      O      0.564000000000     0.722500000000     0.333333333333     0          
O20      O      0.512750000000     0.527300000000     0.624133333333     0          
O21      O      0.735000000000     0.720625000000     0.375000000000     0          
O22      O      0.585000000000     0.501900000000     0.605733333333     0          
O23      O      0.659250000000     0.733600000000     0.389600000000     0          
O24      O      0.689000000000     0.527500000000     0.333333333333     0          
O25      O      0.637750000000     0.690800000000     0.624133333333     0          
O26      O      0.610000000000     0.560625000000     0.375000000000     0          
O27      O      0.710000000000     0.702400000000     0.605733333333     0          
O28      O      0.534250000000     0.558600000000     0.389600000000     0          
H29      H      0.693997500000     0.537750000000     0.559706666667     0          
H30      H      0.560410000000     0.739605000000     0.445930000000     0          
H31      H      0.652347500000     0.511470000000     0.470666666667     0          
H32      H      0.595075000000     0.736122500000     0.528800000000     0          
H33      H      0.568997500000     0.632030000000     0.559706666667     0          
H34      H      0.685410000000     0.594845000000     0.445930000000     0          
H35      H      0.527347500000     0.591530000000     0.470666666667     0          
H36      H      0.720075000000     0.660480000000     0.528800000000     0          
H37      H      0.689000000000     0.562752500000     0.345750000000     0          
H38      H      0.564000000000     0.687247500000     0.654250000000     0          
Al1      Al     0.500250000000     0.500300000000     0.667466666667     0          
Al2      Al     0.625250000000     0.500300000000     0.667466666667     0          
C3       C      0.540000000000     0.518125000000     0.929000000000     0          
C4       C      0.708750000000     0.732850000000     0.737600000000     0          
C5       C      0.717750000000     0.519200000000     0.866533333333     0          
C6       C      0.532500000000     0.740400000000     0.802400000000     0          
C7       C      0.695250000000     0.506400000000     0.817066666667     0          
C8       C      0.553000000000     0.744100000000     0.850266666667     0          
C9       C      0.519500000000     0.507300000000     0.878800000000     0          
C10      C      0.727500000000     0.737900000000     0.786400000000     0          
C11      C      0.665000000000     0.678625000000     0.929000000000     0          
C12      C      0.583750000000     0.570350000000     0.737600000000     0          
C13      C      0.592750000000     0.630700000000     0.866533333333     0          
C14      C      0.657500000000     0.611400000000     0.802400000000     0          
C15      C      0.570250000000     0.606400000000     0.817066666667     0          
C16      C      0.678000000000     0.643600000000     0.850266666667     0          
C17      C      0.644500000000     0.651800000000     0.878800000000     0          
C18      C      0.602500000000     0.601900000000     0.786400000000     0          
O19      O      0.564000000000     0.722500000000     0.666666666667     0          
O20      O      0.512750000000     0.527300000000     0.957466666667     0          
O21      O      0.735000000000     0.720625000000     0.708333333333     0          
O22      O      0.585000000000     0.501900000000     0.939066666667     0          
O23      O      0.659250000000     0.733600000000     0.722933333333     0          
O24      O      0.689000000000     0.527500000000     0.666666666667     0          
O25      O      0.637750000000     0.690800000000     0.957466666667     0          
O26      O      0.610000000000     0.560625000000     0.708333333333     0          
O27      O      0.710000000000     0.702400000000     0.939066666667     0          
O28      O      0.534250000000     0.558600000000     0.722933333333     0          
H29      H      0.693997500000     0.537750000000     0.893040000000     0          
H30      H      0.560410000000     0.739605000000     0.779263333333     0          
H31      H      0.652347500000     0.511470000000     0.804000000000     0          
H32      H      0.595075000000     0.736122500000     0.862133333333     0          
H33      H      0.568997500000     0.632030000000     0.893040000000     0          
H34      H      0.685410000000     0.594845000000     0.779263333333     0          
H35      H      0.527347500000     0.591530000000     0.804000000000     0          
H36      H      0.720075000000     0.660480000000     0.862133333333     0          
H37      H      0.689000000000     0.562752500000     0.679083333333     0          
H38      H      0.564000000000     0.687247500000     0.987583333333     0          
Al1      Al     0.500250000000     0.750300000000     0.000800000000     0          
Al2      Al     0.625250000000     0.750300000000     0.000800000000     0          
C3       C      0.540000000000     0.768125000000     0.262333333333     0          
C4       C      0.708750000000     0.982850000000     0.070933333333     0          
C5       C      0.717750000000     0.769200000000     0.199866666667     0          
C6       C      0.532500000000     0.990400000000     0.135733333333     0          
C7       C      0.695250000000     0.756400000000     0.150400000000     0          
C8       C      0.553000000000     0.994100000000     0.183600000000     0          
C9       C      0.519500000000     0.757300000000     0.212133333333     0          
C10      C      0.727500000000     0.987900000000     0.119733333333     0          
C11      C      0.665000000000     0.928625000000     0.262333333333     0          
C12      C      0.583750000000     0.820350000000     0.070933333333     0          
C13      C      0.592750000000     0.880700000000     0.199866666667     0          
C14      C      0.657500000000     0.861400000000     0.135733333333     0          
C15      C      0.570250000000     0.856400000000     0.150400000000     0          
C16      C      0.678000000000     0.893600000000     0.183600000000     0          
C17      C      0.644500000000     0.901800000000     0.212133333333     0          
C18      C      0.602500000000     0.851900000000     0.119733333333     0          
O19      O      0.564000000000     0.972500000000     0.000000000000     0          
O20      O      0.512750000000     0.777300000000     0.290800000000     0          
O21      O      0.735000000000     0.970625000000     0.041666666667     0          
O22      O      0.585000000000     0.751900000000     0.272400000000     0          
O23      O      0.659250000000     0.983600000000     0.056266666667     0          
O24      O      0.689000000000     0.777500000000     0.000000000000     0          
O25      O      0.637750000000     0.940800000000     0.290800000000     0          
O26      O      0.610000000000     0.810625000000     0.041666666667     0          
O27      O      0.710000000000     0.952400000000     0.272400000000     0          
O28      O      0.534250000000     0.808600000000     0.056266666667     0          
H29      H      0.693997500000     0.787750000000     0.226373333333     0          
H30      H      0.560410000000     0.989605000000     0.112596666667     0          
H31      H      0.652347500000     0.761470000000     0.137333333333     0          
H32      H      0.595075000000     0.986122500000     0.195466666667     0          
H33      H      0.568997500000     0.882030000000     0.226373333333     0          
H34      H      0.685410000000     0.844845000000     0.112596666667     0          
H35      H      0.527347500000     0.841530000000     0.137333333333     0          
H36      H      0.720075000000     0.910480000000     0.195466666667     0          
H37      H      0.689000000000     0.812752500000     0.012416666667     0          
H38      H      0.564000000000     0.937247500000     0.320916666667     0          
Al1      Al     0.500250000000     0.750300000000     0.334133333333     0          
Al2      Al     0.625250000000     0.750300000000     0.334133333333     0          
C3       C      0.540000000000     0.768125000000     0.595666666667     0          
C4       C      0.708750000000     0.982850000000     0.404266666667     0          
C5       C      0.717750000000     0.769200000000     0.533200000000     0          
C6       C      0.532500000000     0.990400000000     0.469066666667     0          
C7       C      0.695250000000     0.756400000000     0.483733333333     0          
C8       C      0.553000000000     0.994100000000     0.516933333333     0          
C9       C      0.519500000000     0.757300000000     0.545466666667     0          
C10      C      0.727500000000     0.987900000000     0.453066666667     0          
C11      C      0.665000000000     0.928625000000     0.595666666667     0          
C12      C      0.583750000000     0.820350000000     0.404266666667     0          
C13      C      0.592750000000     0.880700000000     0.533200000000     0          
C14      C      0.657500000000     0.861400000000     0.469066666667     0          
C15      C      0.570250000000     0.856400000000     0.483733333333     0          
C16      C      0.678000000000     0.893600000000     0.516933333333     0          
C17      C      0.644500000000     0.901800000000     0.545466666667     0          
C18      C      0.602500000000     0.851900000000     0.453066666667     0          
O19      O      0.564000000000     0.972500000000     0.333333333333     0          
O20      O      0.512750000000     0.777300000000     0.624133333333     0          
O21      O      0.735000000000     0.970625000000     0.375000000000     0          
O22      O      0.585000000000     0.751900000000     0.605733333333     0          
O23      O      0.659250000000     0.983600000000     0.389600000000     0          
O24      O      0.689000000000     0.777500000000     0.333333333333     0          
O25      O      0.637750000000     0.940800000000     0.624133333333     0          
O26      O      0.610000000000     0.810625000000     0.375000000000     0          
O27      O      0.710000000000     0.952400000000     0.605733333333     0          
O28      O      0.534250000000     0.808600000000     0.389600000000     0          
H29      H      0.693997500000     0.787750000000     0.559706666667     0          
H30      H      0.560410000000     0.989605000000     0.445930000000     0          
H31      H      0.652347500000     0.761470000000     0.470666666667     0          
H32      H      0.595075000000     0.986122500000     0.528800000000     0          
H33      H      0.568997500000     0.882030000000     0.559706666667     0          
H34      H      0.685410000000     0.844845000000     0.445930000000     0          
H35      H      0.527347500000     0.841530000000     0.470666666667     0          
H36      H      0.720075000000     0.910480000000     0.528800000000     0          
H37      H      0.689000000000     0.812752500000     0.345750000000     0          
H38      H      0.564000000000     0.937247500000     0.654250000000     0          
Al1      Al     0.500250000000     0.750300000000     0.667466666667     0          
Al2      Al     0.625250000000     0.750300000000     0.667466666667     0          
C3       C      0.540000000000     0.768125000000     0.929000000000     0          
C4       C      0.708750000000     0.982850000000     0.737600000000     0          
C5       C      0.717750000000     0.769200000000     0.866533333333     0          
C6       C      0.532500000000     0.990400000000     0.802400000000     0          
C7       C      0.695250000000     0.756400000000     0.817066666667     0          
C8       C      0.553000000000     0.994100000000     0.850266666667     0          
C9       C      0.519500000000     0.757300000000     0.878800000000     0          
C10      C      0.727500000000     0.987900000000     0.786400000000     0          
C11      C      0.665000000000     0.928625000000     0.929000000000     0          
C12      C      0.583750000000     0.820350000000     0.737600000000     0          
C13      C      0.592750000000     0.880700000000     0.866533333333     0          
C14      C      0.657500000000     0.861400000000     0.802400000000     0          
C15      C      0.570250000000     0.856400000000     0.817066666667     0          
C16      C      0.678000000000     0.893600000000     0.850266666667     0          
C17      C      0.644500000000     0.901800000000     0.878800000000     0          
C18      C      0.602500000000     0.851900000000     0.786400000000     0          
O19      O      0.564000000000     0.972500000000     0.666666666667     0          
O20      O      0.512750000000     0.777300000000     0.957466666667     0          
O21      O      0.735000000000     0.970625000000     0.708333333333     0          
O22      O      0.585000000000     0.751900000000     0.939066666667     0          
O23      O      0.659250000000     0.983600000000     0.722933333333     0          
O24      O      0.689000000000     0.777500000000     0.666666666667     0          
O25      O      0.637750000000     0.940800000000     0.957466666667     0          
O26      O      0.610000000000     0.810625000000     0.708333333333     0          
O27      O      0.710000000000     0.952400000000     0.939066666667     0          
O28      O      0.534250000000     0.808600000000     0.722933333333     0          
H29      H      0.693997500000     0.787750000000     0.893040000000     0          
H30      H      0.560410000000     0.989605000000     0.779263333333     0          
H31      H      0.652347500000     0.761470000000     0.804000000000     0          
H32      H      0.595075000000     0.986122500000     0.862133333333     0          
H33      H      0.568997500000     0.882030000000     0.893040000000     0          
H34      H      0.685410000000     0.844845000000     0.779263333333     0          
H35      H      0.527347500000     0.841530000000     0.804000000000     0          
H36      H      0.720075000000     0.910480000000     0.862133333333     0          
H37      H      0.689000000000     0.812752500000     0.679083333333     0          
H38      H      0.564000000000     0.937247500000     0.987583333333     0          
Al1      Al     0.750250000000     0.000300000000     0.000800000000     0          
Al2      Al     0.875250000000     0.000300000000     0.000800000000     0          
C3       C      0.790000000000     0.018125000000     0.262333333333     0          
C4       C      0.958750000000     0.232850000000     0.070933333333     0          
C5       C      0.967750000000     0.019200000000     0.199866666667     0          
C6       C      0.782500000000     0.240400000000     0.135733333333     0          
C7       C      0.945250000000     0.006400000000     0.150400000000     0          
C8       C      0.803000000000     0.244100000000     0.183600000000     0          
C9       C      0.769500000000     0.007300000000     0.212133333333     0          
C10      C      0.977500000000     0.237900000000     0.119733333333     0          
C11      C      0.915000000000     0.178625000000     0.262333333333     0          
C12      C      0.833750000000     0.070350000000     0.070933333333     0          
C13      C      0.842750000000     0.130700000000     0.199866666667     0          
C14      C      0.907500000000     0.111400000000     0.135733333333     0          
C15      C      0.820250000000     0.106400000000     0.150400000000     0          
C16      C      0.928000000000     0.143600000000     0.183600000000     0          
C17      C      0.894500000000     0.151800000000     0.212133333333     0          
C18      C      0.852500000000     0.101900000000     0.119733333333     0          
O19      O      0.814000000000     0.222500000000     0.000000000000     0          
O20      O      0.762750000000     0.027300000000     0.290800000000     0          
O21      O      0.985000000000     0.220625000000     0.041666666667     0          
O22      O      0.835000000000     0.001900000000     0.272400000000     0          
O23      O      0.909250000000     0.233600000000     0.056266666667     0          
O24      O      0.939000000000     0.027500000000     0.000000000000     0          
O25      O      0.887750000000     0.190800000000     0.290800000000     0          
O26      O      0.860000000000     0.060625000000     0.041666666667     0          
O27      O      0.960000000000     0.202400000000     0.272400000000     0          
O28      O      0.784250000000     0.058600000000     0.056266666667     0          
H29      H      0.943997500000     0.037750000000     0.226373333333     0          
H30      H      0.810410000000     0.239605000000     0.112596666667     0          
H31      H      0.902347500000     0.011470000000     0.137333333333     0          
H32      H      0.845075000000     0.236122500000     0.195466666667     0          
H33      H      0.818997500000     0.132030000000     0.226373333333     0          
H34      H      0.935410000000     0.094845000000     0.112596666667     0          
H35      H      0.777347500000     0.091530000000     0.137333333333     0          
H36      H      0.970075000000     0.160480000000     0.195466666667     0          
H37      H      0.939000000000     0.062752500000     0.012416666667     0          
H38      H      0.814000000000     0.187247500000     0.320916666667     0          
Al1      Al     0.750250000000     0.000300000000     0.334133333333     0          
Al2      Al     0.875250000000     0.000300000000     0.334133333333     0          
C3       C      0.790000000000     0.018125000000     0.595666666667     0          
C4       C      0.958750000000     0.232850000000     0.404266666667     0          
C5       C      0.967750000000     0.019200000000     0.533200000000     0          
C6       C      0.782500000000     0.240400000000     0.469066666667     0          
C7       C      0.945250000000     0.006400000000     0.483733333333     0          
C8       C      0.803000000000     0.244100000000     0.516933333333     0          
C9       C      0.769500000000     0.007300000000     0.545466666667     0          
C10      C      0.977500000000     0.237900000000     0.453066666667     0          
C11      C      0.915000000000     0.178625000000     0.595666666667     0          
C12      C      0.833750000000     0.070350000000     0.404266666667     0          
C13      C      0.842750000000     0.130700000000     0.533200000000     0          
C14      C      0.907500000000     0.111400000000     0.469066666667     0          
C15      C      0.820250000000     0.106400000000     0.483733333333     0          
C16      C      0.928000000000     0.143600000000     0.516933333333     0          
C17      C      0.894500000000     0.151800000000     0.545466666667     0          
C18      C      0.852500000000     0.101900000000     0.453066666667     0          
O19      O      0.814000000000     0.222500000000     0.333333333333     0          
O20      O      0.762750000000     0.027300000000     0.624133333333     0          
O21      O      0.985000000000     0.220625000000     0.375000000000     0          
O22      O      0.835000000000     0.001900000000     0.605733333333     0          
O23      O      0.909250000000     0.233600000000     0.389600000000     0          
O24      O      0.939000000000     0.027500000000     0.333333333333     0          
O25      O      0.887750000000     0.190800000000     0.624133333333     0          
O26      O      0.860000000000     0.060625000000     0.375000000000     0          
O27      O      0.960000000000     0.202400000000     0.605733333333     0          
O28      O      0.784250000000     0.058600000000     0.389600000000     0          
H29      H      0.943997500000     0.037750000000     0.559706666667     0          
H30      H      0.810410000000     0.239605000000     0.445930000000     0          
H31      H      0.902347500000     0.011470000000     0.470666666667     0          
H32      H      0.845075000000     0.236122500000     0.528800000000     0          
H33      H      0.818997500000     0.132030000000     0.559706666667     0          
H34      H      0.935410000000     0.094845000000     0.445930000000     0          
H35      H      0.777347500000     0.091530000000     0.470666666667     0          
H36      H      0.970075000000     0.160480000000     0.528800000000     0          
H37      H      0.939000000000     0.062752500000     0.345750000000     0          
H38      H      0.814000000000     0.187247500000     0.654250000000     0          
Al1      Al     0.750250000000     0.000300000000     0.667466666667     0          
Al2      Al     0.875250000000     0.000300000000     0.667466666667     0          
C3       C      0.790000000000     0.018125000000     0.929000000000     0          
C4       C      0.958750000000     0.232850000000     0.737600000000     0          
C5       C      0.967750000000     0.019200000000     0.866533333333     0          
C6       C      0.782500000000     0.240400000000     0.802400000000     0          
C7       C      0.945250000000     0.006400000000     0.817066666667     0          
C8       C      0.803000000000     0.244100000000     0.850266666667     0          
C9       C      0.769500000000     0.007300000000     0.878800000000     0          
C10      C      0.977500000000     0.237900000000     0.786400000000     0          
C11      C      0.915000000000     0.178625000000     0.929000000000     0          
C12      C      0.833750000000     0.070350000000     0.737600000000     0          
C13      C      0.842750000000     0.130700000000     0.866533333333     0          
C14      C      0.907500000000     0.111400000000     0.802400000000     0          
C15      C      0.820250000000     0.106400000000     0.817066666667     0          
C16      C      0.928000000000     0.143600000000     0.850266666667     0          
C17      C      0.894500000000     0.151800000000     0.878800000000     0          
C18      C      0.852500000000     0.101900000000     0.786400000000     0          
O19      O      0.814000000000     0.222500000000     0.666666666667     0          
O20      O      0.762750000000     0.027300000000     0.957466666667     0          
O21      O      0.985000000000     0.220625000000     0.708333333333     0          
O22      O      0.835000000000     0.001900000000     0.939066666667     0          
O23      O      0.909250000000     0.233600000000     0.722933333333     0          
O24      O      0.939000000000     0.027500000000     0.666666666667     0          
O25      O      0.887750000000     0.190800000000     0.957466666667     0          
O26      O      0.860000000000     0.060625000000     0.708333333333     0          
O27      O      0.960000000000     0.202400000000     0.939066666667     0          
O28      O      0.784250000000     0.058600000000     0.722933333333     0          
H29      H      0.943997500000     0.037750000000     0.893040000000     0          
H30      H      0.810410000000     0.239605000000     0.779263333333     0          
H31      H      0.902347500000     0.011470000000     0.804000000000     0          
H32      H      0.845075000000     0.236122500000     0.862133333333     0          
H33      H      0.818997500000     0.132030000000     0.893040000000     0          
H34      H      0.935410000000     0.094845000000     0.779263333333     0          
H35      H      0.777347500000     0.091530000000     0.804000000000     0          
H36      H      0.970075000000     0.160480000000     0.862133333333     0          
H37      H      0.939000000000     0.062752500000     0.679083333333     0          
H38      H      0.814000000000     0.187247500000     0.987583333333     0          
Al1      Al     0.750250000000     0.250300000000     0.000800000000     0          
Al2      Al     0.875250000000     0.250300000000     0.000800000000     0          
C3       C      0.790000000000     0.268125000000     0.262333333333     0          
C4       C      0.958750000000     0.482850000000     0.070933333333     0          
C5       C      0.967750000000     0.269200000000     0.199866666667     0          
C6       C      0.782500000000     0.490400000000     0.135733333333     0          
C7       C      0.945250000000     0.256400000000     0.150400000000     0          
C8       C      0.803000000000     0.494100000000     0.183600000000     0          
C9       C      0.769500000000     0.257300000000     0.212133333333     0          
C10      C      0.977500000000     0.487900000000     0.119733333333     0          
C11      C      0.915000000000     0.428625000000     0.262333333333     0          
C12      C      0.833750000000     0.320350000000     0.070933333333     0          
C13      C      0.842750000000     0.380700000000     0.199866666667     0          
C14      C      0.907500000000     0.361400000000     0.135733333333     0          
C15      C      0.820250000000     0.356400000000     0.150400000000     0          
C16      C      0.928000000000     0.393600000000     0.183600000000     0          
C17      C      0.894500000000     0.401800000000     0.212133333333     0          
C18      C      0.852500000000     0.351900000000     0.119733333333     0          
O19      O      0.814000000000     0.472500000000     0.000000000000     0          
O20      O      0.762750000000     0.277300000000     0.290800000000     0          
O21      O      0.985000000000     0.470625000000     0.041666666667     0          
O22      O      0.835000000000     0.251900000000     0.272400000000     0          
O23      O      0.909250000000     0.483600000000     0.056266666667     0          
O24      O      0.939000000000     0.277500000000     0.000000000000     0          
O25      O      0.887750000000     0.440800000000     0.290800000000     0          
O26      O      0.860000000000     0.310625000000     0.041666666667     0          
O27      O      0.960000000000     0.452400000000     0.272400000000     0          
O28      O      0.784250000000     0.308600000000     0.056266666667     0          
H29      H      0.943997500000     0.287750000000     0.226373333333     0          
H30      H      0.810410000000     0.489605000000     0.112596666667     0          
H31      H      0.902347500000     0.261470000000     0.137333333333     0          
H32      H      0.845075000000     0.486122500000     0.195466666667     0          
H33      H      0.818997500000     0.382030000000     0.226373333333     0          
H34      H      0.935410000000     0.344845000000     0.112596666667     0          
H35      H      0.777347500000     0.341530000000     0.137333333333     0          
H36      H      0.970075000000     0.410480000000     0.195466666667     0          
H37      H      0.939000000000     0.312752500000     0.012416666667     0          
H38      H      0.814000000000     0.437247500000     0.320916666667     0          
Al1      Al     0.750250000000     0.250300000000     0.334133333333     0          
Al2      Al     0.875250000000     0.250300000000     0.334133333333     0          
C3       C      0.790000000000     0.268125000000     0.595666666667     0          
C4       C      0.958750000000     0.482850000000     0.404266666667     0          
C5       C      0.967750000000     0.269200000000     0.533200000000     0          
C6       C      0.782500000000     0.490400000000     0.469066666667     0          
C7       C      0.945250000000     0.256400000000     0.483733333333     0          
C8       C      0.803000000000     0.494100000000     0.516933333333     0          
C9       C      0.769500000000     0.257300000000     0.545466666667     0          
C10      C      0.977500000000     0.487900000000     0.453066666667     0          
C11      C      0.915000000000     0.428625000000     0.595666666667     0          
C12      C      0.833750000000     0.320350000000     0.404266666667     0          
C13      C      0.842750000000     0.380700000000     0.533200000000     0          
C14      C      0.907500000000     0.361400000000     0.469066666667     0          
C15      C      0.820250000000     0.356400000000     0.483733333333     0          
C16      C      0.928000000000     0.393600000000     0.516933333333     0          
C17      C      0.894500000000     0.401800000000     0.545466666667     0          
C18      C      0.852500000000     0.351900000000     0.453066666667     0          
O19      O      0.814000000000     0.472500000000     0.333333333333     0          
O20      O      0.762750000000     0.277300000000     0.624133333333     0          
O21      O      0.985000000000     0.470625000000     0.375000000000     0          
O22      O      0.835000000000     0.251900000000     0.605733333333     0          
O23      O      0.909250000000     0.483600000000     0.389600000000     0          
O24      O      0.939000000000     0.277500000000     0.333333333333     0          
O25      O      0.887750000000     0.440800000000     0.624133333333     0          
O26      O      0.860000000000     0.310625000000     0.375000000000     0          
O27      O      0.960000000000     0.452400000000     0.605733333333     0          
O28      O      0.784250000000     0.308600000000     0.389600000000     0          
H29      H      0.943997500000     0.287750000000     0.559706666667     0          
H30      H      0.810410000000     0.489605000000     0.445930000000     0          
H31      H      0.902347500000     0.261470000000     0.470666666667     0          
H32      H      0.845075000000     0.486122500000     0.528800000000     0          
H33      H      0.818997500000     0.382030000000     0.559706666667     0          
H34      H      0.935410000000     0.344845000000     0.445930000000     0          
H35      H      0.777347500000     0.341530000000     0.470666666667     0          
H36      H      0.970075000000     0.410480000000     0.528800000000     0          
H37      H      0.939000000000     0.312752500000     0.345750000000     0          
H38      H      0.814000000000     0.437247500000     0.654250000000     0          
Al1      Al     0.750250000000     0.250300000000     0.667466666667     0          
Al2      Al     0.875250000000     0.250300000000     0.667466666667     0          
C3       C      0.790000000000     0.268125000000     0.929000000000     0          
C4       C      0.958750000000     0.482850000000     0.737600000000     0          
C5       C      0.967750000000     0.269200000000     0.866533333333     0          
C6       C      0.782500000000     0.490400000000     0.802400000000     0          
C7       C      0.945250000000     0.256400000000     0.817066666667     0          
C8       C      0.803000000000     0.494100000000     0.850266666667     0          
C9       C      0.769500000000     0.257300000000     0.878800000000     0          
C10      C      0.977500000000     0.487900000000     0.786400000000     0          
C11      C      0.915000000000     0.428625000000     0.929000000000     0          
C12      C      0.833750000000     0.320350000000     0.737600000000     0          
C13      C      0.842750000000     0.380700000000     0.866533333333     0          
C14      C      0.907500000000     0.361400000000     0.802400000000     0          
C15      C      0.820250000000     0.356400000000     0.817066666667     0          
C16      C      0.928000000000     0.393600000000     0.850266666667     0          
C17      C      0.894500000000     0.401800000000     0.878800000000     0          
C18      C      0.852500000000     0.351900000000     0.786400000000     0          
O19      O      0.814000000000     0.472500000000     0.666666666667     0          
O20      O      0.762750000000     0.277300000000     0.957466666667     0          
O21      O      0.985000000000     0.470625000000     0.708333333333     0          
O22      O      0.835000000000     0.251900000000     0.939066666667     0          
O23      O      0.909250000000     0.483600000000     0.722933333333     0          
O24      O      0.939000000000     0.277500000000     0.666666666667     0          
O25      O      0.887750000000     0.440800000000     0.957466666667     0          
O26      O      0.860000000000     0.310625000000     0.708333333333     0          
O27      O      0.960000000000     0.452400000000     0.939066666667     0          
O28      O      0.784250000000     0.308600000000     0.722933333333     0          
H29      H      0.943997500000     0.287750000000     0.893040000000     0          
H30      H      0.810410000000     0.489605000000     0.779263333333     0          
H31      H      0.902347500000     0.261470000000     0.804000000000     0          
H32      H      0.845075000000     0.486122500000     0.862133333333     0          
H33      H      0.818997500000     0.382030000000     0.893040000000     0          
H34      H      0.935410000000     0.344845000000     0.779263333333     0          
H35      H      0.777347500000     0.341530000000     0.804000000000     0          
H36      H      0.970075000000     0.410480000000     0.862133333333     0          
H37      H      0.939000000000     0.312752500000     0.679083333333     0          
H38      H      0.814000000000     0.437247500000     0.987583333333     0          
Al1      Al     0.750250000000     0.500300000000     0.000800000000     0          
Al2      Al     0.875250000000     0.500300000000     0.000800000000     0          
C3       C      0.790000000000     0.518125000000     0.262333333333     0          
C4       C      0.958750000000     0.732850000000     0.070933333333     0          
C5       C      0.967750000000     0.519200000000     0.199866666667     0          
C6       C      0.782500000000     0.740400000000     0.135733333333     0          
C7       C      0.945250000000     0.506400000000     0.150400000000     0          
C8       C      0.803000000000     0.744100000000     0.183600000000     0          
C9       C      0.769500000000     0.507300000000     0.212133333333     0          
C10      C      0.977500000000     0.737900000000     0.119733333333     0          
C11      C      0.915000000000     0.678625000000     0.262333333333     0          
C12      C      0.833750000000     0.570350000000     0.070933333333     0          
C13      C      0.842750000000     0.630700000000     0.199866666667     0          
C14      C      0.907500000000     0.611400000000     0.135733333333     0          
C15      C      0.820250000000     0.606400000000     0.150400000000     0          
C16      C      0.928000000000     0.643600000000     0.183600000000     0          
C17      C      0.894500000000     0.651800000000     0.212133333333     0          
C18      C      0.852500000000     0.601900000000     0.119733333333     0          
O19      O      0.814000000000     0.722500000000     0.000000000000     0          
O20      O      0.762750000000     0.527300000000     0.290800000000     0          
O21      O      0.985000000000     0.720625000000     0.041666666667     0          
O22      O      0.835000000000     0.501900000000     0.272400000000     0          
O23      O      0.909250000000     0.733600000000     0.056266666667     0          
O24      O      0.939000000000     0.527500000000     0.000000000000     0          
O25      O      0.887750000000     0.690800000000     0.290800000000     0          
O26      O      0.860000000000     0.560625000000     0.041666666667     0          
O27      O      0.960000000000     0.702400000000     0.272400000000     0          
O28      O      0.784250000000     0.558600000000     0.056266666667     0          
H29      H      0.943997500000     0.537750000000     0.226373333333     0          
H30      H      0.810410000000     0.739605000000     0.112596666667     0          
H31      H      0.902347500000     0.511470000000     0.137333333333     0          
H32      H      0.845075000000     0.736122500000     0.195466666667     0          
H33      H      0.818997500000     0.632030000000     0.226373333333     0          
H34      H      0.935410000000     0.594845000000     0.112596666667     0          
H35      H      0.777347500000     0.591530000000     0.137333333333     0          
H36      H      0.970075000000     0.660480000000     0.195466666667     0          
H37      H      0.939000000000     0.562752500000     0.012416666667     0          
H38      H      0.814000000000     0.687247500000     0.320916666667     0          
Al1      Al     0.750250000000     0.500300000000     0.334133333333     0          
Al2      Al     0.875250000000     0.500300000000     0.334133333333     0          
C3       C      0.790000000000     0.518125000000     0.595666666667     0          
C4       C      0.958750000000     0.732850000000     0.404266666667     0          
C5       C      0.967750000000     0.519200000000     0.533200000000     0          
C6       C      0.782500000000     0.740400000000     0.469066666667     0          
C7       C      0.945250000000     0.506400000000     0.483733333333     0          
C8       C      0.803000000000     0.744100000000     0.516933333333     0          
C9       C      0.769500000000     0.507300000000     0.545466666667     0          
C10      C      0.977500000000     0.737900000000     0.453066666667     0          
C11      C      0.915000000000     0.678625000000     0.595666666667     0          
C12      C      0.833750000000     0.570350000000     0.404266666667     0          
C13      C      0.842750000000     0.630700000000     0.533200000000     0          
C14      C      0.907500000000     0.611400000000     0.469066666667     0          
C15      C      0.820250000000     0.606400000000     0.483733333333     0          
C16      C      0.928000000000     0.643600000000     0.516933333333     0          
C17      C      0.894500000000     0.651800000000     0.545466666667     0          
C18      C      0.852500000000     0.601900000000     0.453066666667     0          
O19      O      0.814000000000     0.722500000000     0.333333333333     0          
O20      O      0.762750000000     0.527300000000     0.624133333333     0          
O21      O      0.985000000000     0.720625000000     0.375000000000     0          
O22      O      0.835000000000     0.501900000000     0.605733333333     0          
O23      O      0.909250000000     0.733600000000     0.389600000000     0          
O24      O      0.939000000000     0.527500000000     0.333333333333     0          
O25      O      0.887750000000     0.690800000000     0.624133333333     0          
O26      O      0.860000000000     0.560625000000     0.375000000000     0          
O27      O      0.960000000000     0.702400000000     0.605733333333     0          
O28      O      0.784250000000     0.558600000000     0.389600000000     0          
H29      H      0.943997500000     0.537750000000     0.559706666667     0          
H30      H      0.810410000000     0.739605000000     0.445930000000     0          
H31      H      0.902347500000     0.511470000000     0.470666666667     0          
H32      H      0.845075000000     0.736122500000     0.528800000000     0          
H33      H      0.818997500000     0.632030000000     0.559706666667     0          
H34      H      0.935410000000     0.594845000000     0.445930000000     0          
H35      H      0.777347500000     0.591530000000     0.470666666667     0          
H36      H      0.970075000000     0.660480000000     0.528800000000     0          
H37      H      0.939000000000     0.562752500000     0.345750000000     0          
H38      H      0.814000000000     0.687247500000     0.654250000000     0          
Al1      Al     0.750250000000     0.500300000000     0.667466666667     0          
Al2      Al     0.875250000000     0.500300000000     0.667466666667     0          
C3       C      0.790000000000     0.518125000000     0.929000000000     0          
C4       C      0.958750000000     0.732850000000     0.737600000000     0          
C5       C      0.967750000000     0.519200000000     0.866533333333     0          
C6       C      0.782500000000     0.740400000000     0.802400000000     0          
C7       C      0.945250000000     0.506400000000     0.817066666667     0          
C8       C      0.803000000000     0.744100000000     0.850266666667     0          
C9       C      0.769500000000     0.507300000000     0.878800000000     0          
C10      C      0.977500000000     0.737900000000     0.786400000000     0          
C11      C      0.915000000000     0.678625000000     0.929000000000     0          
C12      C      0.833750000000     0.570350000000     0.737600000000     0          
C13      C      0.842750000000     0.630700000000     0.866533333333     0          
C14      C      0.907500000000     0.611400000000     0.802400000000     0          
C15      C      0.820250000000     0.606400000000     0.817066666667     0          
C16      C      0.928000000000     0.643600000000     0.850266666667     0          
C17      C      0.894500000000     0.651800000000     0.878800000000     0          
C18      C      0.852500000000     0.601900000000     0.786400000000     0          
O19      O      0.814000000000     0.722500000000     0.666666666667     0          
O20      O      0.762750000000     0.527300000000     0.957466666667     0          
O21      O      0.985000000000     0.720625000000     0.708333333333     0          
O22      O      0.835000000000     0.501900000000     0.939066666667     0          
O23      O      0.909250000000     0.733600000000     0.722933333333     0          
O24      O      0.939000000000     0.527500000000     0.666666666667     0          
O25      O      0.887750000000     0.690800000000     0.957466666667     0          
O26      O      0.860000000000     0.560625000000     0.708333333333     0          
O27      O      0.960000000000     0.702400000000     0.939066666667     0          
O28      O      0.784250000000     0.558600000000     0.722933333333     0          
H29      H      0.943997500000     0.537750000000     0.893040000000     0          
H30      H      0.810410000000     0.739605000000     0.779263333333     0          
H31      H      0.902347500000     0.511470000000     0.804000000000     0          
H32      H      0.845075000000     0.736122500000     0.862133333333     0          
H33      H      0.818997500000     0.632030000000     0.893040000000     0          
H34      H      0.935410000000     0.594845000000     0.779263333333     0          
H35      H      0.777347500000     0.591530000000     0.804000000000     0          
H36      H      0.970075000000     0.660480000000     0.862133333333     0          
H37      H      0.939000000000     0.562752500000     0.679083333333     0          
H38      H      0.814000000000     0.687247500000     0.987583333333     0          
Al1      Al     0.750250000000     0.750300000000     0.000800000000     0          
Al2      Al     0.875250000000     0.750300000000     0.000800000000     0          
C3       C      0.790000000000     0.768125000000     0.262333333333     0          
C4       C      0.958750000000     0.982850000000     0.070933333333     0          
C5       C      0.967750000000     0.769200000000     0.199866666667     0          
C6       C      0.782500000000     0.990400000000     0.135733333333     0          
C7       C      0.945250000000     0.756400000000     0.150400000000     0          
C8       C      0.803000000000     0.994100000000     0.183600000000     0          
C9       C      0.769500000000     0.757300000000     0.212133333333     0          
C10      C      0.977500000000     0.987900000000     0.119733333333     0          
C11      C      0.915000000000     0.928625000000     0.262333333333     0          
C12      C      0.833750000000     0.820350000000     0.070933333333     0          
C13      C      0.842750000000     0.880700000000     0.199866666667     0          
C14      C      0.907500000000     0.861400000000     0.135733333333     0          
C15      C      0.820250000000     0.856400000000     0.150400000000     0          
C16      C      0.928000000000     0.893600000000     0.183600000000     0          
C17      C      0.894500000000     0.901800000000     0.212133333333     0          
C18      C      0.852500000000     0.851900000000     0.119733333333     0          
O19      O      0.814000000000     0.972500000000     0.000000000000     0          
O20      O      0.762750000000     0.777300000000     0.290800000000     0          
O21      O      0.985000000000     0.970625000000     0.041666666667     0          
O22      O      0.835000000000     0.751900000000     0.272400000000     0          
O23      O      0.909250000000     0.983600000000     0.056266666667     0          
O24      O      0.939000000000     0.777500000000     0.000000000000     0          
O25      O      0.887750000000     0.940800000000     0.290800000000     0          
O26      O      0.860000000000     0.810625000000     0.041666666667     0          
O27      O      0.960000000000     0.952400000000     0.272400000000     0          
O28      O      0.784250000000     0.808600000000     0.056266666667     0          
H29      H      0.943997500000     0.787750000000     0.226373333333     0          
H30      H      0.810410000000     0.989605000000     0.112596666667     0          
H31      H      0.902347500000     0.761470000000     0.137333333333     0          
H32      H      0.845075000000     0.986122500000     0.195466666667     0          
H33      H      0.818997500000     0.882030000000     0.226373333333     0          
H34      H      0.935410000000     0.844845000000     0.112596666667     0          
H35      H      0.777347500000     0.841530000000     0.137333333333     0          
H36      H      0.970075000000     0.910480000000     0.195466666667     0          
H37      H      0.939000000000     0.812752500000     0.012416666667     0          
H38      H      0.814000000000     0.937247500000     0.320916666667     0          
Al1      Al     0.750250000000     0.750300000000     0.334133333333     0          
Al2      Al     0.875250000000     0.750300000000     0.334133333333     0          
C3       C      0.790000000000     0.768125000000     0.595666666667     0          
C4       C      0.958750000000     0.982850000000     0.404266666667     0          
C5       C      0.967750000000     0.769200000000     0.533200000000     0          
C6       C      0.782500000000     0.990400000000     0.469066666667     0          
C7       C      0.945250000000     0.756400000000     0.483733333333     0          
C8       C      0.803000000000     0.994100000000     0.516933333333     0          
C9       C      0.769500000000     0.757300000000     0.545466666667     0          
C10      C      0.977500000000     0.987900000000     0.453066666667     0          
C11      C      0.915000000000     0.928625000000     0.595666666667     0          
C12      C      0.833750000000     0.820350000000     0.404266666667     0          
C13      C      0.842750000000     0.880700000000     0.533200000000     0          
C14      C      0.907500000000     0.861400000000     0.469066666667     0          
C15      C      0.820250000000     0.856400000000     0.483733333333     0          
C16      C      0.928000000000     0.893600000000     0.516933333333     0          
C17      C      0.894500000000     0.901800000000     0.545466666667     0          
C18      C      0.852500000000     0.851900000000     0.453066666667     0          
O19      O      0.814000000000     0.972500000000     0.333333333333     0          
O20      O      0.762750000000     0.777300000000     0.624133333333     0          
O21      O      0.985000000000     0.970625000000     0.375000000000     0          
O22      O      0.835000000000     0.751900000000     0.605733333333     0          
O23      O      0.909250000000     0.983600000000     0.389600000000     0          
O24      O      0.939000000000     0.777500000000     0.333333333333     0          
O25      O      0.887750000000     0.940800000000     0.624133333333     0          
O26      O      0.860000000000     0.810625000000     0.375000000000     0          
O27      O      0.960000000000     0.952400000000     0.605733333333     0          
O28      O      0.784250000000     0.808600000000     0.389600000000     0          
H29      H      0.943997500000     0.787750000000     0.559706666667     0          
H30      H      0.810410000000     0.989605000000     0.445930000000     0          
H31      H      0.902347500000     0.761470000000     0.470666666667     0          
H32      H      0.845075000000     0.986122500000     0.528800000000     0          
H33      H      0.818997500000     0.882030000000     0.559706666667     0          
H34      H      0.935410000000     0.844845000000     0.445930000000     0          
H35      H      0.777347500000     0.841530000000     0.470666666667     0          
H36      H      0.970075000000     0.910480000000     0.528800000000     0          
H37      H      0.939000000000     0.812752500000     0.345750000000     0          
H38      H      0.814000000000     0.937247500000     0.654250000000     0          
Al1      Al     0.750250000000     0.750300000000     0.667466666667     0          
Al2      Al     0.875250000000     0.750300000000     0.667466666667     0          
C3       C      0.790000000000     0.768125000000     0.929000000000     0          
C4       C      0.958750000000     0.982850000000     0.737600000000     0          
C5       C      0.967750000000     0.769200000000     0.866533333333     0          
C6       C      0.782500000000     0.990400000000     0.802400000000     0          
C7       C      0.945250000000     0.756400000000     0.817066666667     0          
C8       C      0.803000000000     0.994100000000     0.850266666667     0          
C9       C      0.769500000000     0.757300000000     0.878800000000     0          
C10      C      0.977500000000     0.987900000000     0.786400000000     0          
C11      C      0.915000000000     0.928625000000     0.929000000000     0          
C12      C      0.833750000000     0.820350000000     0.737600000000     0          
C13      C      0.842750000000     0.880700000000     0.866533333333     0          
C14      C      0.907500000000     0.861400000000     0.802400000000     0          
C15      C      0.820250000000     0.856400000000     0.817066666667     0          
C16      C      0.928000000000     0.893600000000     0.850266666667     0          
C17      C      0.894500000000     0.901800000000     0.878800000000     0          
C18      C      0.852500000000     0.851900000000     0.786400000000     0          
O19      O      0.814000000000     0.972500000000     0.666666666667     0          
O20      O      0.762750000000     0.777300000000     0.957466666667     0          
O21      O      0.985000000000     0.970625000000     0.708333333333     0          
O22      O      0.835000000000     0.751900000000     0.939066666667     0          
O23      O      0.909250000000     0.983600000000     0.722933333333     0          
O24      O      0.939000000000     0.777500000000     0.666666666667     0          
O25      O      0.887750000000     0.940800000000     0.957466666667     0          
O26      O      0.860000000000     0.810625000000     0.708333333333     0          
O27      O      0.960000000000     0.952400000000     0.939066666667     0          
O28      O      0.784250000000     0.808600000000     0.722933333333     0          
H29      H      0.943997500000     0.787750000000     0.893040000000     0          
H30      H      0.810410000000     0.989605000000     0.779263333333     0          
H31      H      0.902347500000     0.761470000000     0.804000000000     0          
H32      H      0.845075000000     0.986122500000     0.862133333333     0          
H33      H      0.818997500000     0.882030000000     0.893040000000     0          
H34      H      0.935410000000     0.844845000000     0.779263333333     0          
H35      H      0.777347500000     0.841530000000     0.804000000000     0          
H36      H      0.970075000000     0.910480000000     0.862133333333     0          
H37      H      0.939000000000     0.812752500000     0.679083333333     0          
H38      H      0.814000000000     0.937247500000     0.987583333333     0          


