data_KAXQIL_clean_coremof-2019

_audit_creation_method RASPA-1.0
_audit_creation_date 2023-6-5
_audit_author_name 'hardiagon'

_cell_length_a    5.5673
_cell_length_b    11.8214
_cell_length_c    22.7603
_cell_angle_alpha 100.356
_cell_angle_beta  90
_cell_angle_gamma 90
_cell_volume      44205.9

_symmetry_cell_setting          triclinic
_symmetry_space_group_name_Hall 'P 1'
_symmetry_space_group_name_H-M  'P 1'
_symmetry_Int_Tables_number     1

_symmetry_equiv_pos_as_xyz 'x,y,z'

loop_
_atom_site_label
_atom_site_type_symbol
_atom_site_fract_x
_atom_site_fract_y
_atom_site_fract_z
_atom_site_charge
Ca1      Ca     0.151170000000     0.212273333333     0.361435000000     0          
Ca1      Ca     0.151170000000     0.212273333333     0.861435000000     0          
Ca1      Ca     0.151170000000     0.545606666667     0.361435000000     0          
Ca1      Ca     0.151170000000     0.545606666667     0.861435000000     0          
Ca1      Ca     0.151170000000     0.878940000000     0.361435000000     0          
Ca1      Ca     0.151170000000     0.878940000000     0.861435000000     0          
Ca1      Ca     0.351170000000     0.212273333333     0.361435000000     0          
Ca1      Ca     0.351170000000     0.212273333333     0.861435000000     0          
Ca1      Ca     0.351170000000     0.545606666667     0.361435000000     0          
Ca1      Ca     0.351170000000     0.545606666667     0.861435000000     0          
Ca1      Ca     0.351170000000     0.878940000000     0.361435000000     0          
Ca1      Ca     0.351170000000     0.878940000000     0.861435000000     0          
Ca1      Ca     0.551170000000     0.212273333333     0.361435000000     0          
Ca1      Ca     0.551170000000     0.212273333333     0.861435000000     0          
Ca1      Ca     0.551170000000     0.545606666667     0.361435000000     0          
Ca1      Ca     0.551170000000     0.545606666667     0.861435000000     0          
Ca1      Ca     0.551170000000     0.878940000000     0.361435000000     0          
Ca1      Ca     0.551170000000     0.878940000000     0.861435000000     0          
Ca1      Ca     0.751170000000     0.212273333333     0.361435000000     0          
Ca1      Ca     0.751170000000     0.212273333333     0.861435000000     0          
Ca1      Ca     0.751170000000     0.545606666667     0.361435000000     0          
Ca1      Ca     0.751170000000     0.545606666667     0.861435000000     0          
Ca1      Ca     0.751170000000     0.878940000000     0.361435000000     0          
Ca1      Ca     0.751170000000     0.878940000000     0.861435000000     0          
Ca1      Ca     0.951170000000     0.212273333333     0.361435000000     0          
Ca1      Ca     0.951170000000     0.212273333333     0.861435000000     0          
Ca1      Ca     0.951170000000     0.545606666667     0.361435000000     0          
Ca1      Ca     0.951170000000     0.545606666667     0.861435000000     0          
Ca1      Ca     0.951170000000     0.878940000000     0.361435000000     0          
Ca1      Ca     0.951170000000     0.878940000000     0.861435000000     0          
Ca2      Ca     0.051170000000     0.287726666667     0.388565000000     0          
Ca2      Ca     0.051170000000     0.287726666667     0.888565000000     0          
Ca2      Ca     0.051170000000     0.621060000000     0.388565000000     0          
Ca2      Ca     0.051170000000     0.621060000000     0.888565000000     0          
Ca2      Ca     0.051170000000     0.954393333333     0.388565000000     0          
Ca2      Ca     0.051170000000     0.954393333333     0.888565000000     0          
Ca2      Ca     0.251170000000     0.287726666667     0.388565000000     0          
Ca2      Ca     0.251170000000     0.287726666667     0.888565000000     0          
Ca2      Ca     0.251170000000     0.621060000000     0.388565000000     0          
Ca2      Ca     0.251170000000     0.621060000000     0.888565000000     0          
Ca2      Ca     0.251170000000     0.954393333333     0.388565000000     0          
Ca2      Ca     0.251170000000     0.954393333333     0.888565000000     0          
Ca2      Ca     0.451170000000     0.287726666667     0.388565000000     0          
Ca2      Ca     0.451170000000     0.287726666667     0.888565000000     0          
Ca2      Ca     0.451170000000     0.621060000000     0.388565000000     0          
Ca2      Ca     0.451170000000     0.621060000000     0.888565000000     0          
Ca2      Ca     0.451170000000     0.954393333333     0.388565000000     0          
Ca2      Ca     0.451170000000     0.954393333333     0.888565000000     0          
Ca2      Ca     0.651170000000     0.287726666667     0.388565000000     0          
Ca2      Ca     0.651170000000     0.287726666667     0.888565000000     0          
Ca2      Ca     0.651170000000     0.621060000000     0.388565000000     0          
Ca2      Ca     0.651170000000     0.621060000000     0.888565000000     0          
Ca2      Ca     0.651170000000     0.954393333333     0.388565000000     0          
Ca2      Ca     0.651170000000     0.954393333333     0.888565000000     0          
Ca2      Ca     0.851170000000     0.287726666667     0.388565000000     0          
Ca2      Ca     0.851170000000     0.287726666667     0.888565000000     0          
Ca2      Ca     0.851170000000     0.621060000000     0.388565000000     0          
Ca2      Ca     0.851170000000     0.621060000000     0.888565000000     0          
Ca2      Ca     0.851170000000     0.954393333333     0.388565000000     0          
Ca2      Ca     0.851170000000     0.954393333333     0.888565000000     0          
Ca3      Ca     0.048830000000     0.121060000000     0.138565000000     0          
Ca3      Ca     0.048830000000     0.121060000000     0.638565000000     0          
Ca3      Ca     0.048830000000     0.454393333333     0.138565000000     0          
Ca3      Ca     0.048830000000     0.454393333333     0.638565000000     0          
Ca3      Ca     0.048830000000     0.787726666667     0.138565000000     0          
Ca3      Ca     0.048830000000     0.787726666667     0.638565000000     0          
Ca3      Ca     0.248830000000     0.121060000000     0.138565000000     0          
Ca3      Ca     0.248830000000     0.121060000000     0.638565000000     0          
Ca3      Ca     0.248830000000     0.454393333333     0.138565000000     0          
Ca3      Ca     0.248830000000     0.454393333333     0.638565000000     0          
Ca3      Ca     0.248830000000     0.787726666667     0.138565000000     0          
Ca3      Ca     0.248830000000     0.787726666667     0.638565000000     0          
Ca3      Ca     0.448830000000     0.121060000000     0.138565000000     0          
Ca3      Ca     0.448830000000     0.121060000000     0.638565000000     0          
Ca3      Ca     0.448830000000     0.454393333333     0.138565000000     0          
Ca3      Ca     0.448830000000     0.454393333333     0.638565000000     0          
Ca3      Ca     0.448830000000     0.787726666667     0.138565000000     0          
Ca3      Ca     0.448830000000     0.787726666667     0.638565000000     0          
Ca3      Ca     0.648830000000     0.121060000000     0.138565000000     0          
Ca3      Ca     0.648830000000     0.121060000000     0.638565000000     0          
Ca3      Ca     0.648830000000     0.454393333333     0.138565000000     0          
Ca3      Ca     0.648830000000     0.454393333333     0.638565000000     0          
Ca3      Ca     0.648830000000     0.787726666667     0.138565000000     0          
Ca3      Ca     0.648830000000     0.787726666667     0.638565000000     0          
Ca3      Ca     0.848830000000     0.121060000000     0.138565000000     0          
Ca3      Ca     0.848830000000     0.121060000000     0.638565000000     0          
Ca3      Ca     0.848830000000     0.454393333333     0.138565000000     0          
Ca3      Ca     0.848830000000     0.454393333333     0.638565000000     0          
Ca3      Ca     0.848830000000     0.787726666667     0.138565000000     0          
Ca3      Ca     0.848830000000     0.787726666667     0.638565000000     0          
Ca4      Ca     0.148830000000     0.045606666667     0.111435000000     0          
Ca4      Ca     0.148830000000     0.045606666667     0.611435000000     0          
Ca4      Ca     0.148830000000     0.378940000000     0.111435000000     0          
Ca4      Ca     0.148830000000     0.378940000000     0.611435000000     0          
Ca4      Ca     0.148830000000     0.712273333333     0.111435000000     0          
Ca4      Ca     0.148830000000     0.712273333333     0.611435000000     0          
Ca4      Ca     0.348830000000     0.045606666667     0.111435000000     0          
Ca4      Ca     0.348830000000     0.045606666667     0.611435000000     0          
Ca4      Ca     0.348830000000     0.378940000000     0.111435000000     0          
Ca4      Ca     0.348830000000     0.378940000000     0.611435000000     0          
Ca4      Ca     0.348830000000     0.712273333333     0.111435000000     0          
Ca4      Ca     0.348830000000     0.712273333333     0.611435000000     0          
Ca4      Ca     0.548830000000     0.045606666667     0.111435000000     0          
Ca4      Ca     0.548830000000     0.045606666667     0.611435000000     0          
Ca4      Ca     0.548830000000     0.378940000000     0.111435000000     0          
Ca4      Ca     0.548830000000     0.378940000000     0.611435000000     0          
Ca4      Ca     0.548830000000     0.712273333333     0.111435000000     0          
Ca4      Ca     0.548830000000     0.712273333333     0.611435000000     0          
Ca4      Ca     0.748830000000     0.045606666667     0.111435000000     0          
Ca4      Ca     0.748830000000     0.045606666667     0.611435000000     0          
Ca4      Ca     0.748830000000     0.378940000000     0.111435000000     0          
Ca4      Ca     0.748830000000     0.378940000000     0.611435000000     0          
Ca4      Ca     0.748830000000     0.712273333333     0.111435000000     0          
Ca4      Ca     0.748830000000     0.712273333333     0.611435000000     0          
Ca4      Ca     0.948830000000     0.045606666667     0.111435000000     0          
Ca4      Ca     0.948830000000     0.045606666667     0.611435000000     0          
Ca4      Ca     0.948830000000     0.378940000000     0.111435000000     0          
Ca4      Ca     0.948830000000     0.378940000000     0.611435000000     0          
Ca4      Ca     0.948830000000     0.712273333333     0.111435000000     0          
Ca4      Ca     0.948830000000     0.712273333333     0.611435000000     0          
H1       H      0.039920000000     0.064833333333     0.309450000000     0          
H1       H      0.039920000000     0.064833333333     0.809450000000     0          
H1       H      0.039920000000     0.398166666667     0.309450000000     0          
H1       H      0.039920000000     0.398166666667     0.809450000000     0          
H1       H      0.039920000000     0.731500000000     0.309450000000     0          
H1       H      0.039920000000     0.731500000000     0.809450000000     0          
H1       H      0.239920000000     0.064833333333     0.309450000000     0          
H1       H      0.239920000000     0.064833333333     0.809450000000     0          
H1       H      0.239920000000     0.398166666667     0.309450000000     0          
H1       H      0.239920000000     0.398166666667     0.809450000000     0          
H1       H      0.239920000000     0.731500000000     0.309450000000     0          
H1       H      0.239920000000     0.731500000000     0.809450000000     0          
H1       H      0.439920000000     0.064833333333     0.309450000000     0          
H1       H      0.439920000000     0.064833333333     0.809450000000     0          
H1       H      0.439920000000     0.398166666667     0.309450000000     0          
H1       H      0.439920000000     0.398166666667     0.809450000000     0          
H1       H      0.439920000000     0.731500000000     0.309450000000     0          
H1       H      0.439920000000     0.731500000000     0.809450000000     0          
H1       H      0.639920000000     0.064833333333     0.309450000000     0          
H1       H      0.639920000000     0.064833333333     0.809450000000     0          
H1       H      0.639920000000     0.398166666667     0.309450000000     0          
H1       H      0.639920000000     0.398166666667     0.809450000000     0          
H1       H      0.639920000000     0.731500000000     0.309450000000     0          
H1       H      0.639920000000     0.731500000000     0.809450000000     0          
H1       H      0.839920000000     0.064833333333     0.309450000000     0          
H1       H      0.839920000000     0.064833333333     0.809450000000     0          
H1       H      0.839920000000     0.398166666667     0.309450000000     0          
H1       H      0.839920000000     0.398166666667     0.809450000000     0          
H1       H      0.839920000000     0.731500000000     0.309450000000     0          
H1       H      0.839920000000     0.731500000000     0.809450000000     0          
H2       H      0.024980000000     0.077266666667     0.203050000000     0          
H2       H      0.024980000000     0.077266666667     0.703050000000     0          
H2       H      0.024980000000     0.410600000000     0.203050000000     0          
H2       H      0.024980000000     0.410600000000     0.703050000000     0          
H2       H      0.024980000000     0.743933333333     0.203050000000     0          
H2       H      0.024980000000     0.743933333333     0.703050000000     0          
H2       H      0.224980000000     0.077266666667     0.203050000000     0          
H2       H      0.224980000000     0.077266666667     0.703050000000     0          
H2       H      0.224980000000     0.410600000000     0.203050000000     0          
H2       H      0.224980000000     0.410600000000     0.703050000000     0          
H2       H      0.224980000000     0.743933333333     0.203050000000     0          
H2       H      0.224980000000     0.743933333333     0.703050000000     0          
H2       H      0.424980000000     0.077266666667     0.203050000000     0          
H2       H      0.424980000000     0.077266666667     0.703050000000     0          
H2       H      0.424980000000     0.410600000000     0.203050000000     0          
H2       H      0.424980000000     0.410600000000     0.703050000000     0          
H2       H      0.424980000000     0.743933333333     0.203050000000     0          
H2       H      0.424980000000     0.743933333333     0.703050000000     0          
H2       H      0.624980000000     0.077266666667     0.203050000000     0          
H2       H      0.624980000000     0.077266666667     0.703050000000     0          
H2       H      0.624980000000     0.410600000000     0.203050000000     0          
H2       H      0.624980000000     0.410600000000     0.703050000000     0          
H2       H      0.624980000000     0.743933333333     0.203050000000     0          
H2       H      0.624980000000     0.743933333333     0.703050000000     0          
H2       H      0.824980000000     0.077266666667     0.203050000000     0          
H2       H      0.824980000000     0.077266666667     0.703050000000     0          
H2       H      0.824980000000     0.410600000000     0.203050000000     0          
H2       H      0.824980000000     0.410600000000     0.703050000000     0          
H2       H      0.824980000000     0.743933333333     0.203050000000     0          
H2       H      0.824980000000     0.743933333333     0.703050000000     0          
H3       H      0.110820000000     0.140200000000     0.268600000000     0          
H3       H      0.110820000000     0.140200000000     0.768600000000     0          
H3       H      0.110820000000     0.473533333333     0.268600000000     0          
H3       H      0.110820000000     0.473533333333     0.768600000000     0          
H3       H      0.110820000000     0.806866666667     0.268600000000     0          
H3       H      0.110820000000     0.806866666667     0.768600000000     0          
H3       H      0.310820000000     0.140200000000     0.268600000000     0          
H3       H      0.310820000000     0.140200000000     0.768600000000     0          
H3       H      0.310820000000     0.473533333333     0.268600000000     0          
H3       H      0.310820000000     0.473533333333     0.768600000000     0          
H3       H      0.310820000000     0.806866666667     0.268600000000     0          
H3       H      0.310820000000     0.806866666667     0.768600000000     0          
H3       H      0.510820000000     0.140200000000     0.268600000000     0          
H3       H      0.510820000000     0.140200000000     0.768600000000     0          
H3       H      0.510820000000     0.473533333333     0.268600000000     0          
H3       H      0.510820000000     0.473533333333     0.768600000000     0          
H3       H      0.510820000000     0.806866666667     0.268600000000     0          
H3       H      0.510820000000     0.806866666667     0.768600000000     0          
H3       H      0.710820000000     0.140200000000     0.268600000000     0          
H3       H      0.710820000000     0.140200000000     0.768600000000     0          
H3       H      0.710820000000     0.473533333333     0.268600000000     0          
H3       H      0.710820000000     0.473533333333     0.768600000000     0          
H3       H      0.710820000000     0.806866666667     0.268600000000     0          
H3       H      0.710820000000     0.806866666667     0.768600000000     0          
H3       H      0.910820000000     0.140200000000     0.268600000000     0          
H3       H      0.910820000000     0.140200000000     0.768600000000     0          
H3       H      0.910820000000     0.473533333333     0.268600000000     0          
H3       H      0.910820000000     0.473533333333     0.768600000000     0          
H3       H      0.910820000000     0.806866666667     0.268600000000     0          
H3       H      0.910820000000     0.806866666667     0.768600000000     0          
H4       H      0.112460000000     0.112933333333     0.336450000000     0          
H4       H      0.112460000000     0.112933333333     0.836450000000     0          
H4       H      0.112460000000     0.446266666667     0.336450000000     0          
H4       H      0.112460000000     0.446266666667     0.836450000000     0          
H4       H      0.112460000000     0.779600000000     0.336450000000     0          
H4       H      0.112460000000     0.779600000000     0.836450000000     0          
H4       H      0.312460000000     0.112933333333     0.336450000000     0          
H4       H      0.312460000000     0.112933333333     0.836450000000     0          
H4       H      0.312460000000     0.446266666667     0.336450000000     0          
H4       H      0.312460000000     0.446266666667     0.836450000000     0          
H4       H      0.312460000000     0.779600000000     0.336450000000     0          
H4       H      0.312460000000     0.779600000000     0.836450000000     0          
H4       H      0.512460000000     0.112933333333     0.336450000000     0          
H4       H      0.512460000000     0.112933333333     0.836450000000     0          
H4       H      0.512460000000     0.446266666667     0.336450000000     0          
H4       H      0.512460000000     0.446266666667     0.836450000000     0          
H4       H      0.512460000000     0.779600000000     0.336450000000     0          
H4       H      0.512460000000     0.779600000000     0.836450000000     0          
H4       H      0.712460000000     0.112933333333     0.336450000000     0          
H4       H      0.712460000000     0.112933333333     0.836450000000     0          
H4       H      0.712460000000     0.446266666667     0.336450000000     0          
H4       H      0.712460000000     0.446266666667     0.836450000000     0          
H4       H      0.712460000000     0.779600000000     0.336450000000     0          
H4       H      0.712460000000     0.779600000000     0.836450000000     0          
H4       H      0.912460000000     0.112933333333     0.336450000000     0          
H4       H      0.912460000000     0.112933333333     0.836450000000     0          
H4       H      0.912460000000     0.446266666667     0.336450000000     0          
H4       H      0.912460000000     0.446266666667     0.836450000000     0          
H4       H      0.912460000000     0.779600000000     0.336450000000     0          
H4       H      0.912460000000     0.779600000000     0.836450000000     0          
H5       H      0.095660000000     0.061300000000     0.359850000000     0          
H5       H      0.095660000000     0.061300000000     0.859850000000     0          
H5       H      0.095660000000     0.394633333333     0.359850000000     0          
H5       H      0.095660000000     0.394633333333     0.859850000000     0          
H5       H      0.095660000000     0.727966666667     0.359850000000     0          
H5       H      0.095660000000     0.727966666667     0.859850000000     0          
H5       H      0.295660000000     0.061300000000     0.359850000000     0          
H5       H      0.295660000000     0.061300000000     0.859850000000     0          
H5       H      0.295660000000     0.394633333333     0.359850000000     0          
H5       H      0.295660000000     0.394633333333     0.859850000000     0          
H5       H      0.295660000000     0.727966666667     0.359850000000     0          
H5       H      0.295660000000     0.727966666667     0.859850000000     0          
H5       H      0.495660000000     0.061300000000     0.359850000000     0          
H5       H      0.495660000000     0.061300000000     0.859850000000     0          
H5       H      0.495660000000     0.394633333333     0.359850000000     0          
H5       H      0.495660000000     0.394633333333     0.859850000000     0          
H5       H      0.495660000000     0.727966666667     0.359850000000     0          
H5       H      0.495660000000     0.727966666667     0.859850000000     0          
H5       H      0.695660000000     0.061300000000     0.359850000000     0          
H5       H      0.695660000000     0.061300000000     0.859850000000     0          
H5       H      0.695660000000     0.394633333333     0.359850000000     0          
H5       H      0.695660000000     0.394633333333     0.859850000000     0          
H5       H      0.695660000000     0.727966666667     0.359850000000     0          
H5       H      0.695660000000     0.727966666667     0.859850000000     0          
H5       H      0.895660000000     0.061300000000     0.359850000000     0          
H5       H      0.895660000000     0.061300000000     0.859850000000     0          
H5       H      0.895660000000     0.394633333333     0.359850000000     0          
H5       H      0.895660000000     0.394633333333     0.859850000000     0          
H5       H      0.895660000000     0.727966666667     0.359850000000     0          
H5       H      0.895660000000     0.727966666667     0.859850000000     0          
H6       H      0.023720000000     0.014633333333     0.334550000000     0          
H6       H      0.023720000000     0.014633333333     0.834550000000     0          
H6       H      0.023720000000     0.347966666667     0.334550000000     0          
H6       H      0.023720000000     0.347966666667     0.834550000000     0          
H6       H      0.023720000000     0.681300000000     0.334550000000     0          
H6       H      0.023720000000     0.681300000000     0.834550000000     0          
H6       H      0.223720000000     0.014633333333     0.334550000000     0          
H6       H      0.223720000000     0.014633333333     0.834550000000     0          
H6       H      0.223720000000     0.347966666667     0.334550000000     0          
H6       H      0.223720000000     0.347966666667     0.834550000000     0          
H6       H      0.223720000000     0.681300000000     0.334550000000     0          
H6       H      0.223720000000     0.681300000000     0.834550000000     0          
H6       H      0.423720000000     0.014633333333     0.334550000000     0          
H6       H      0.423720000000     0.014633333333     0.834550000000     0          
H6       H      0.423720000000     0.347966666667     0.334550000000     0          
H6       H      0.423720000000     0.347966666667     0.834550000000     0          
H6       H      0.423720000000     0.681300000000     0.334550000000     0          
H6       H      0.423720000000     0.681300000000     0.834550000000     0          
H6       H      0.623720000000     0.014633333333     0.334550000000     0          
H6       H      0.623720000000     0.014633333333     0.834550000000     0          
H6       H      0.623720000000     0.347966666667     0.334550000000     0          
H6       H      0.623720000000     0.347966666667     0.834550000000     0          
H6       H      0.623720000000     0.681300000000     0.334550000000     0          
H6       H      0.623720000000     0.681300000000     0.834550000000     0          
H6       H      0.823720000000     0.014633333333     0.334550000000     0          
H6       H      0.823720000000     0.014633333333     0.834550000000     0          
H6       H      0.823720000000     0.347966666667     0.334550000000     0          
H6       H      0.823720000000     0.347966666667     0.834550000000     0          
H6       H      0.823720000000     0.681300000000     0.334550000000     0          
H6       H      0.823720000000     0.681300000000     0.834550000000     0          
H7       H      0.041320000000     0.091700000000     0.253900000000     0          
H7       H      0.041320000000     0.091700000000     0.753900000000     0          
H7       H      0.041320000000     0.425033333333     0.253900000000     0          
H7       H      0.041320000000     0.425033333333     0.753900000000     0          
H7       H      0.041320000000     0.758366666667     0.253900000000     0          
H7       H      0.041320000000     0.758366666667     0.753900000000     0          
H7       H      0.241320000000     0.091700000000     0.253900000000     0          
H7       H      0.241320000000     0.091700000000     0.753900000000     0          
H7       H      0.241320000000     0.425033333333     0.253900000000     0          
H7       H      0.241320000000     0.425033333333     0.753900000000     0          
H7       H      0.241320000000     0.758366666667     0.253900000000     0          
H7       H      0.241320000000     0.758366666667     0.753900000000     0          
H7       H      0.441320000000     0.091700000000     0.253900000000     0          
H7       H      0.441320000000     0.091700000000     0.753900000000     0          
H7       H      0.441320000000     0.425033333333     0.253900000000     0          
H7       H      0.441320000000     0.425033333333     0.753900000000     0          
H7       H      0.441320000000     0.758366666667     0.253900000000     0          
H7       H      0.441320000000     0.758366666667     0.753900000000     0          
H7       H      0.641320000000     0.091700000000     0.253900000000     0          
H7       H      0.641320000000     0.091700000000     0.753900000000     0          
H7       H      0.641320000000     0.425033333333     0.253900000000     0          
H7       H      0.641320000000     0.425033333333     0.753900000000     0          
H7       H      0.641320000000     0.758366666667     0.253900000000     0          
H7       H      0.641320000000     0.758366666667     0.753900000000     0          
H7       H      0.841320000000     0.091700000000     0.253900000000     0          
H7       H      0.841320000000     0.091700000000     0.753900000000     0          
H7       H      0.841320000000     0.425033333333     0.253900000000     0          
H7       H      0.841320000000     0.425033333333     0.753900000000     0          
H7       H      0.841320000000     0.758366666667     0.253900000000     0          
H7       H      0.841320000000     0.758366666667     0.753900000000     0          
H8       H      0.094260000000     0.124366666667     0.217900000000     0          
H8       H      0.094260000000     0.124366666667     0.717900000000     0          
H8       H      0.094260000000     0.457700000000     0.217900000000     0          
H8       H      0.094260000000     0.457700000000     0.717900000000     0          
H8       H      0.094260000000     0.791033333333     0.217900000000     0          
H8       H      0.094260000000     0.791033333333     0.717900000000     0          
H8       H      0.294260000000     0.124366666667     0.217900000000     0          
H8       H      0.294260000000     0.124366666667     0.717900000000     0          
H8       H      0.294260000000     0.457700000000     0.217900000000     0          
H8       H      0.294260000000     0.457700000000     0.717900000000     0          
H8       H      0.294260000000     0.791033333333     0.217900000000     0          
H8       H      0.294260000000     0.791033333333     0.717900000000     0          
H8       H      0.494260000000     0.124366666667     0.217900000000     0          
H8       H      0.494260000000     0.124366666667     0.717900000000     0          
H8       H      0.494260000000     0.457700000000     0.217900000000     0          
H8       H      0.494260000000     0.457700000000     0.717900000000     0          
H8       H      0.494260000000     0.791033333333     0.217900000000     0          
H8       H      0.494260000000     0.791033333333     0.717900000000     0          
H8       H      0.694260000000     0.124366666667     0.217900000000     0          
H8       H      0.694260000000     0.124366666667     0.717900000000     0          
H8       H      0.694260000000     0.457700000000     0.217900000000     0          
H8       H      0.694260000000     0.457700000000     0.717900000000     0          
H8       H      0.694260000000     0.791033333333     0.217900000000     0          
H8       H      0.694260000000     0.791033333333     0.717900000000     0          
H8       H      0.894260000000     0.124366666667     0.217900000000     0          
H8       H      0.894260000000     0.124366666667     0.717900000000     0          
H8       H      0.894260000000     0.457700000000     0.217900000000     0          
H8       H      0.894260000000     0.457700000000     0.717900000000     0          
H8       H      0.894260000000     0.791033333333     0.217900000000     0          
H8       H      0.894260000000     0.791033333333     0.717900000000     0          
H9       H      0.139920000000     0.101833333333     0.440550000000     0          
H9       H      0.139920000000     0.101833333333     0.940550000000     0          
H9       H      0.139920000000     0.435166666667     0.440550000000     0          
H9       H      0.139920000000     0.435166666667     0.940550000000     0          
H9       H      0.139920000000     0.768500000000     0.440550000000     0          
H9       H      0.139920000000     0.768500000000     0.940550000000     0          
H9       H      0.339920000000     0.101833333333     0.440550000000     0          
H9       H      0.339920000000     0.101833333333     0.940550000000     0          
H9       H      0.339920000000     0.435166666667     0.440550000000     0          
H9       H      0.339920000000     0.435166666667     0.940550000000     0          
H9       H      0.339920000000     0.768500000000     0.440550000000     0          
H9       H      0.339920000000     0.768500000000     0.940550000000     0          
H9       H      0.539920000000     0.101833333333     0.440550000000     0          
H9       H      0.539920000000     0.101833333333     0.940550000000     0          
H9       H      0.539920000000     0.435166666667     0.440550000000     0          
H9       H      0.539920000000     0.435166666667     0.940550000000     0          
H9       H      0.539920000000     0.768500000000     0.440550000000     0          
H9       H      0.539920000000     0.768500000000     0.940550000000     0          
H9       H      0.739920000000     0.101833333333     0.440550000000     0          
H9       H      0.739920000000     0.101833333333     0.940550000000     0          
H9       H      0.739920000000     0.435166666667     0.440550000000     0          
H9       H      0.739920000000     0.435166666667     0.940550000000     0          
H9       H      0.739920000000     0.768500000000     0.440550000000     0          
H9       H      0.739920000000     0.768500000000     0.940550000000     0          
H9       H      0.939920000000     0.101833333333     0.440550000000     0          
H9       H      0.939920000000     0.101833333333     0.940550000000     0          
H9       H      0.939920000000     0.435166666667     0.440550000000     0          
H9       H      0.939920000000     0.435166666667     0.940550000000     0          
H9       H      0.939920000000     0.768500000000     0.440550000000     0          
H9       H      0.939920000000     0.768500000000     0.940550000000     0          
H10      H      0.124980000000     0.089400000000     0.046950000000     0          
H10      H      0.124980000000     0.089400000000     0.546950000000     0          
H10      H      0.124980000000     0.422733333333     0.046950000000     0          
H10      H      0.124980000000     0.422733333333     0.546950000000     0          
H10      H      0.124980000000     0.756066666667     0.046950000000     0          
H10      H      0.124980000000     0.756066666667     0.546950000000     0          
H10      H      0.324980000000     0.089400000000     0.046950000000     0          
H10      H      0.324980000000     0.089400000000     0.546950000000     0          
H10      H      0.324980000000     0.422733333333     0.046950000000     0          
H10      H      0.324980000000     0.422733333333     0.546950000000     0          
H10      H      0.324980000000     0.756066666667     0.046950000000     0          
H10      H      0.324980000000     0.756066666667     0.546950000000     0          
H10      H      0.524980000000     0.089400000000     0.046950000000     0          
H10      H      0.524980000000     0.089400000000     0.546950000000     0          
H10      H      0.524980000000     0.422733333333     0.046950000000     0          
H10      H      0.524980000000     0.422733333333     0.546950000000     0          
H10      H      0.524980000000     0.756066666667     0.046950000000     0          
H10      H      0.524980000000     0.756066666667     0.546950000000     0          
H10      H      0.724980000000     0.089400000000     0.046950000000     0          
H10      H      0.724980000000     0.089400000000     0.546950000000     0          
H10      H      0.724980000000     0.422733333333     0.046950000000     0          
H10      H      0.724980000000     0.422733333333     0.546950000000     0          
H10      H      0.724980000000     0.756066666667     0.046950000000     0          
H10      H      0.724980000000     0.756066666667     0.546950000000     0          
H10      H      0.924980000000     0.089400000000     0.046950000000     0          
H10      H      0.924980000000     0.089400000000     0.546950000000     0          
H10      H      0.924980000000     0.422733333333     0.046950000000     0          
H10      H      0.924980000000     0.422733333333     0.546950000000     0          
H10      H      0.924980000000     0.756066666667     0.046950000000     0          
H10      H      0.924980000000     0.756066666667     0.546950000000     0          
H11      H      0.010820000000     0.026466666667     0.481400000000     0          
H11      H      0.010820000000     0.026466666667     0.981400000000     0          
H11      H      0.010820000000     0.359800000000     0.481400000000     0          
H11      H      0.010820000000     0.359800000000     0.981400000000     0          
H11      H      0.010820000000     0.693133333333     0.481400000000     0          
H11      H      0.010820000000     0.693133333333     0.981400000000     0          
H11      H      0.210820000000     0.026466666667     0.481400000000     0          
H11      H      0.210820000000     0.026466666667     0.981400000000     0          
H11      H      0.210820000000     0.359800000000     0.481400000000     0          
H11      H      0.210820000000     0.359800000000     0.981400000000     0          
H11      H      0.210820000000     0.693133333333     0.481400000000     0          
H11      H      0.210820000000     0.693133333333     0.981400000000     0          
H11      H      0.410820000000     0.026466666667     0.481400000000     0          
H11      H      0.410820000000     0.026466666667     0.981400000000     0          
H11      H      0.410820000000     0.359800000000     0.481400000000     0          
H11      H      0.410820000000     0.359800000000     0.981400000000     0          
H11      H      0.410820000000     0.693133333333     0.481400000000     0          
H11      H      0.410820000000     0.693133333333     0.981400000000     0          
H11      H      0.610820000000     0.026466666667     0.481400000000     0          
H11      H      0.610820000000     0.026466666667     0.981400000000     0          
H11      H      0.610820000000     0.359800000000     0.481400000000     0          
H11      H      0.610820000000     0.359800000000     0.981400000000     0          
H11      H      0.610820000000     0.693133333333     0.481400000000     0          
H11      H      0.610820000000     0.693133333333     0.981400000000     0          
H11      H      0.810820000000     0.026466666667     0.481400000000     0          
H11      H      0.810820000000     0.026466666667     0.981400000000     0          
H11      H      0.810820000000     0.359800000000     0.481400000000     0          
H11      H      0.810820000000     0.359800000000     0.981400000000     0          
H11      H      0.810820000000     0.693133333333     0.481400000000     0          
H11      H      0.810820000000     0.693133333333     0.981400000000     0          
H12      H      0.012460000000     0.053733333333     0.413550000000     0          
H12      H      0.012460000000     0.053733333333     0.913550000000     0          
H12      H      0.012460000000     0.387066666667     0.413550000000     0          
H12      H      0.012460000000     0.387066666667     0.913550000000     0          
H12      H      0.012460000000     0.720400000000     0.413550000000     0          
H12      H      0.012460000000     0.720400000000     0.913550000000     0          
H12      H      0.212460000000     0.053733333333     0.413550000000     0          
H12      H      0.212460000000     0.053733333333     0.913550000000     0          
H12      H      0.212460000000     0.387066666667     0.413550000000     0          
H12      H      0.212460000000     0.387066666667     0.913550000000     0          
H12      H      0.212460000000     0.720400000000     0.413550000000     0          
H12      H      0.212460000000     0.720400000000     0.913550000000     0          
H12      H      0.412460000000     0.053733333333     0.413550000000     0          
H12      H      0.412460000000     0.053733333333     0.913550000000     0          
H12      H      0.412460000000     0.387066666667     0.413550000000     0          
H12      H      0.412460000000     0.387066666667     0.913550000000     0          
H12      H      0.412460000000     0.720400000000     0.413550000000     0          
H12      H      0.412460000000     0.720400000000     0.913550000000     0          
H12      H      0.612460000000     0.053733333333     0.413550000000     0          
H12      H      0.612460000000     0.053733333333     0.913550000000     0          
H12      H      0.612460000000     0.387066666667     0.413550000000     0          
H12      H      0.612460000000     0.387066666667     0.913550000000     0          
H12      H      0.612460000000     0.720400000000     0.413550000000     0          
H12      H      0.612460000000     0.720400000000     0.913550000000     0          
H12      H      0.812460000000     0.053733333333     0.413550000000     0          
H12      H      0.812460000000     0.053733333333     0.913550000000     0          
H12      H      0.812460000000     0.387066666667     0.413550000000     0          
H12      H      0.812460000000     0.387066666667     0.913550000000     0          
H12      H      0.812460000000     0.720400000000     0.413550000000     0          
H12      H      0.812460000000     0.720400000000     0.913550000000     0          
H13      H      0.195660000000     0.105366666667     0.390150000000     0          
H13      H      0.195660000000     0.105366666667     0.890150000000     0          
H13      H      0.195660000000     0.438700000000     0.390150000000     0          
H13      H      0.195660000000     0.438700000000     0.890150000000     0          
H13      H      0.195660000000     0.772033333333     0.390150000000     0          
H13      H      0.195660000000     0.772033333333     0.890150000000     0          
H13      H      0.395660000000     0.105366666667     0.390150000000     0          
H13      H      0.395660000000     0.105366666667     0.890150000000     0          
H13      H      0.395660000000     0.438700000000     0.390150000000     0          
H13      H      0.395660000000     0.438700000000     0.890150000000     0          
H13      H      0.395660000000     0.772033333333     0.390150000000     0          
H13      H      0.395660000000     0.772033333333     0.890150000000     0          
H13      H      0.595660000000     0.105366666667     0.390150000000     0          
H13      H      0.595660000000     0.105366666667     0.890150000000     0          
H13      H      0.595660000000     0.438700000000     0.390150000000     0          
H13      H      0.595660000000     0.438700000000     0.890150000000     0          
H13      H      0.595660000000     0.772033333333     0.390150000000     0          
H13      H      0.595660000000     0.772033333333     0.890150000000     0          
H13      H      0.795660000000     0.105366666667     0.390150000000     0          
H13      H      0.795660000000     0.105366666667     0.890150000000     0          
H13      H      0.795660000000     0.438700000000     0.390150000000     0          
H13      H      0.795660000000     0.438700000000     0.890150000000     0          
H13      H      0.795660000000     0.772033333333     0.390150000000     0          
H13      H      0.795660000000     0.772033333333     0.890150000000     0          
H13      H      0.995660000000     0.105366666667     0.390150000000     0          
H13      H      0.995660000000     0.105366666667     0.890150000000     0          
H13      H      0.995660000000     0.438700000000     0.390150000000     0          
H13      H      0.995660000000     0.438700000000     0.890150000000     0          
H13      H      0.995660000000     0.772033333333     0.390150000000     0          
H13      H      0.995660000000     0.772033333333     0.890150000000     0          
H14      H      0.123720000000     0.152033333333     0.415450000000     0          
H14      H      0.123720000000     0.152033333333     0.915450000000     0          
H14      H      0.123720000000     0.485366666667     0.415450000000     0          
H14      H      0.123720000000     0.485366666667     0.915450000000     0          
H14      H      0.123720000000     0.818700000000     0.415450000000     0          
H14      H      0.123720000000     0.818700000000     0.915450000000     0          
H14      H      0.323720000000     0.152033333333     0.415450000000     0          
H14      H      0.323720000000     0.152033333333     0.915450000000     0          
H14      H      0.323720000000     0.485366666667     0.415450000000     0          
H14      H      0.323720000000     0.485366666667     0.915450000000     0          
H14      H      0.323720000000     0.818700000000     0.415450000000     0          
H14      H      0.323720000000     0.818700000000     0.915450000000     0          
H14      H      0.523720000000     0.152033333333     0.415450000000     0          
H14      H      0.523720000000     0.152033333333     0.915450000000     0          
H14      H      0.523720000000     0.485366666667     0.415450000000     0          
H14      H      0.523720000000     0.485366666667     0.915450000000     0          
H14      H      0.523720000000     0.818700000000     0.415450000000     0          
H14      H      0.523720000000     0.818700000000     0.915450000000     0          
H14      H      0.723720000000     0.152033333333     0.415450000000     0          
H14      H      0.723720000000     0.152033333333     0.915450000000     0          
H14      H      0.723720000000     0.485366666667     0.415450000000     0          
H14      H      0.723720000000     0.485366666667     0.915450000000     0          
H14      H      0.723720000000     0.818700000000     0.415450000000     0          
H14      H      0.723720000000     0.818700000000     0.915450000000     0          
H14      H      0.923720000000     0.152033333333     0.415450000000     0          
H14      H      0.923720000000     0.152033333333     0.915450000000     0          
H14      H      0.923720000000     0.485366666667     0.415450000000     0          
H14      H      0.923720000000     0.485366666667     0.915450000000     0          
H14      H      0.923720000000     0.818700000000     0.415450000000     0          
H14      H      0.923720000000     0.818700000000     0.915450000000     0          
H15      H      0.141320000000     0.074966666667     0.496100000000     0          
H15      H      0.141320000000     0.074966666667     0.996100000000     0          
H15      H      0.141320000000     0.408300000000     0.496100000000     0          
H15      H      0.141320000000     0.408300000000     0.996100000000     0          
H15      H      0.141320000000     0.741633333333     0.496100000000     0          
H15      H      0.141320000000     0.741633333333     0.996100000000     0          
H15      H      0.341320000000     0.074966666667     0.496100000000     0          
H15      H      0.341320000000     0.074966666667     0.996100000000     0          
H15      H      0.341320000000     0.408300000000     0.496100000000     0          
H15      H      0.341320000000     0.408300000000     0.996100000000     0          
H15      H      0.341320000000     0.741633333333     0.496100000000     0          
H15      H      0.341320000000     0.741633333333     0.996100000000     0          
H15      H      0.541320000000     0.074966666667     0.496100000000     0          
H15      H      0.541320000000     0.074966666667     0.996100000000     0          
H15      H      0.541320000000     0.408300000000     0.496100000000     0          
H15      H      0.541320000000     0.408300000000     0.996100000000     0          
H15      H      0.541320000000     0.741633333333     0.496100000000     0          
H15      H      0.541320000000     0.741633333333     0.996100000000     0          
H15      H      0.741320000000     0.074966666667     0.496100000000     0          
H15      H      0.741320000000     0.074966666667     0.996100000000     0          
H15      H      0.741320000000     0.408300000000     0.496100000000     0          
H15      H      0.741320000000     0.408300000000     0.996100000000     0          
H15      H      0.741320000000     0.741633333333     0.496100000000     0          
H15      H      0.741320000000     0.741633333333     0.996100000000     0          
H15      H      0.941320000000     0.074966666667     0.496100000000     0          
H15      H      0.941320000000     0.074966666667     0.996100000000     0          
H15      H      0.941320000000     0.408300000000     0.496100000000     0          
H15      H      0.941320000000     0.408300000000     0.996100000000     0          
H15      H      0.941320000000     0.741633333333     0.496100000000     0          
H15      H      0.941320000000     0.741633333333     0.996100000000     0          
H16      H      0.194260000000     0.042300000000     0.032100000000     0          
H16      H      0.194260000000     0.042300000000     0.532100000000     0          
H16      H      0.194260000000     0.375633333333     0.032100000000     0          
H16      H      0.194260000000     0.375633333333     0.532100000000     0          
H16      H      0.194260000000     0.708966666667     0.032100000000     0          
H16      H      0.194260000000     0.708966666667     0.532100000000     0          
H16      H      0.394260000000     0.042300000000     0.032100000000     0          
H16      H      0.394260000000     0.042300000000     0.532100000000     0          
H16      H      0.394260000000     0.375633333333     0.032100000000     0          
H16      H      0.394260000000     0.375633333333     0.532100000000     0          
H16      H      0.394260000000     0.708966666667     0.032100000000     0          
H16      H      0.394260000000     0.708966666667     0.532100000000     0          
H16      H      0.594260000000     0.042300000000     0.032100000000     0          
H16      H      0.594260000000     0.042300000000     0.532100000000     0          
H16      H      0.594260000000     0.375633333333     0.032100000000     0          
H16      H      0.594260000000     0.375633333333     0.532100000000     0          
H16      H      0.594260000000     0.708966666667     0.032100000000     0          
H16      H      0.594260000000     0.708966666667     0.532100000000     0          
H16      H      0.794260000000     0.042300000000     0.032100000000     0          
H16      H      0.794260000000     0.042300000000     0.532100000000     0          
H16      H      0.794260000000     0.375633333333     0.032100000000     0          
H16      H      0.794260000000     0.375633333333     0.532100000000     0          
H16      H      0.794260000000     0.708966666667     0.032100000000     0          
H16      H      0.794260000000     0.708966666667     0.532100000000     0          
H16      H      0.994260000000     0.042300000000     0.032100000000     0          
H16      H      0.994260000000     0.042300000000     0.532100000000     0          
H16      H      0.994260000000     0.375633333333     0.032100000000     0          
H16      H      0.994260000000     0.375633333333     0.532100000000     0          
H16      H      0.994260000000     0.708966666667     0.032100000000     0          
H16      H      0.994260000000     0.708966666667     0.532100000000     0          
H17      H      0.160080000000     0.268500000000     0.190550000000     0          
H17      H      0.160080000000     0.268500000000     0.690550000000     0          
H17      H      0.160080000000     0.601833333333     0.190550000000     0          
H17      H      0.160080000000     0.601833333333     0.690550000000     0          
H17      H      0.160080000000     0.935166666667     0.190550000000     0          
H17      H      0.160080000000     0.935166666667     0.690550000000     0          
H17      H      0.360080000000     0.268500000000     0.190550000000     0          
H17      H      0.360080000000     0.268500000000     0.690550000000     0          
H17      H      0.360080000000     0.601833333333     0.190550000000     0          
H17      H      0.360080000000     0.601833333333     0.690550000000     0          
H17      H      0.360080000000     0.935166666667     0.190550000000     0          
H17      H      0.360080000000     0.935166666667     0.690550000000     0          
H17      H      0.560080000000     0.268500000000     0.190550000000     0          
H17      H      0.560080000000     0.268500000000     0.690550000000     0          
H17      H      0.560080000000     0.601833333333     0.190550000000     0          
H17      H      0.560080000000     0.601833333333     0.690550000000     0          
H17      H      0.560080000000     0.935166666667     0.190550000000     0          
H17      H      0.560080000000     0.935166666667     0.690550000000     0          
H17      H      0.760080000000     0.268500000000     0.190550000000     0          
H17      H      0.760080000000     0.268500000000     0.690550000000     0          
H17      H      0.760080000000     0.601833333333     0.190550000000     0          
H17      H      0.760080000000     0.601833333333     0.690550000000     0          
H17      H      0.760080000000     0.935166666667     0.190550000000     0          
H17      H      0.760080000000     0.935166666667     0.690550000000     0          
H17      H      0.960080000000     0.268500000000     0.190550000000     0          
H17      H      0.960080000000     0.268500000000     0.690550000000     0          
H17      H      0.960080000000     0.601833333333     0.190550000000     0          
H17      H      0.960080000000     0.601833333333     0.690550000000     0          
H17      H      0.960080000000     0.935166666667     0.190550000000     0          
H17      H      0.960080000000     0.935166666667     0.690550000000     0          
H18      H      0.175020000000     0.256066666667     0.296950000000     0          
H18      H      0.175020000000     0.256066666667     0.796950000000     0          
H18      H      0.175020000000     0.589400000000     0.296950000000     0          
H18      H      0.175020000000     0.589400000000     0.796950000000     0          
H18      H      0.175020000000     0.922733333333     0.296950000000     0          
H18      H      0.175020000000     0.922733333333     0.796950000000     0          
H18      H      0.375020000000     0.256066666667     0.296950000000     0          
H18      H      0.375020000000     0.256066666667     0.796950000000     0          
H18      H      0.375020000000     0.589400000000     0.296950000000     0          
H18      H      0.375020000000     0.589400000000     0.796950000000     0          
H18      H      0.375020000000     0.922733333333     0.296950000000     0          
H18      H      0.375020000000     0.922733333333     0.796950000000     0          
H18      H      0.575020000000     0.256066666667     0.296950000000     0          
H18      H      0.575020000000     0.256066666667     0.796950000000     0          
H18      H      0.575020000000     0.589400000000     0.296950000000     0          
H18      H      0.575020000000     0.589400000000     0.796950000000     0          
H18      H      0.575020000000     0.922733333333     0.296950000000     0          
H18      H      0.575020000000     0.922733333333     0.796950000000     0          
H18      H      0.775020000000     0.256066666667     0.296950000000     0          
H18      H      0.775020000000     0.256066666667     0.796950000000     0          
H18      H      0.775020000000     0.589400000000     0.296950000000     0          
H18      H      0.775020000000     0.589400000000     0.796950000000     0          
H18      H      0.775020000000     0.922733333333     0.296950000000     0          
H18      H      0.775020000000     0.922733333333     0.796950000000     0          
H18      H      0.975020000000     0.256066666667     0.296950000000     0          
H18      H      0.975020000000     0.256066666667     0.796950000000     0          
H18      H      0.975020000000     0.589400000000     0.296950000000     0          
H18      H      0.975020000000     0.589400000000     0.796950000000     0          
H18      H      0.975020000000     0.922733333333     0.296950000000     0          
H18      H      0.975020000000     0.922733333333     0.796950000000     0          
H19      H      0.089180000000     0.193133333333     0.231400000000     0          
H19      H      0.089180000000     0.193133333333     0.731400000000     0          
H19      H      0.089180000000     0.526466666667     0.231400000000     0          
H19      H      0.089180000000     0.526466666667     0.731400000000     0          
H19      H      0.089180000000     0.859800000000     0.231400000000     0          
H19      H      0.089180000000     0.859800000000     0.731400000000     0          
H19      H      0.289180000000     0.193133333333     0.231400000000     0          
H19      H      0.289180000000     0.193133333333     0.731400000000     0          
H19      H      0.289180000000     0.526466666667     0.231400000000     0          
H19      H      0.289180000000     0.526466666667     0.731400000000     0          
H19      H      0.289180000000     0.859800000000     0.231400000000     0          
H19      H      0.289180000000     0.859800000000     0.731400000000     0          
H19      H      0.489180000000     0.193133333333     0.231400000000     0          
H19      H      0.489180000000     0.193133333333     0.731400000000     0          
H19      H      0.489180000000     0.526466666667     0.231400000000     0          
H19      H      0.489180000000     0.526466666667     0.731400000000     0          
H19      H      0.489180000000     0.859800000000     0.231400000000     0          
H19      H      0.489180000000     0.859800000000     0.731400000000     0          
H19      H      0.689180000000     0.193133333333     0.231400000000     0          
H19      H      0.689180000000     0.193133333333     0.731400000000     0          
H19      H      0.689180000000     0.526466666667     0.231400000000     0          
H19      H      0.689180000000     0.526466666667     0.731400000000     0          
H19      H      0.689180000000     0.859800000000     0.231400000000     0          
H19      H      0.689180000000     0.859800000000     0.731400000000     0          
H19      H      0.889180000000     0.193133333333     0.231400000000     0          
H19      H      0.889180000000     0.193133333333     0.731400000000     0          
H19      H      0.889180000000     0.526466666667     0.231400000000     0          
H19      H      0.889180000000     0.526466666667     0.731400000000     0          
H19      H      0.889180000000     0.859800000000     0.231400000000     0          
H19      H      0.889180000000     0.859800000000     0.731400000000     0          
H20      H      0.087540000000     0.220400000000     0.163550000000     0          
H20      H      0.087540000000     0.220400000000     0.663550000000     0          
H20      H      0.087540000000     0.553733333333     0.163550000000     0          
H20      H      0.087540000000     0.553733333333     0.663550000000     0          
H20      H      0.087540000000     0.887066666667     0.163550000000     0          
H20      H      0.087540000000     0.887066666667     0.663550000000     0          
H20      H      0.287540000000     0.220400000000     0.163550000000     0          
H20      H      0.287540000000     0.220400000000     0.663550000000     0          
H20      H      0.287540000000     0.553733333333     0.163550000000     0          
H20      H      0.287540000000     0.553733333333     0.663550000000     0          
H20      H      0.287540000000     0.887066666667     0.163550000000     0          
H20      H      0.287540000000     0.887066666667     0.663550000000     0          
H20      H      0.487540000000     0.220400000000     0.163550000000     0          
H20      H      0.487540000000     0.220400000000     0.663550000000     0          
H20      H      0.487540000000     0.553733333333     0.163550000000     0          
H20      H      0.487540000000     0.553733333333     0.663550000000     0          
H20      H      0.487540000000     0.887066666667     0.163550000000     0          
H20      H      0.487540000000     0.887066666667     0.663550000000     0          
H20      H      0.687540000000     0.220400000000     0.163550000000     0          
H20      H      0.687540000000     0.220400000000     0.663550000000     0          
H20      H      0.687540000000     0.553733333333     0.163550000000     0          
H20      H      0.687540000000     0.553733333333     0.663550000000     0          
H20      H      0.687540000000     0.887066666667     0.163550000000     0          
H20      H      0.687540000000     0.887066666667     0.663550000000     0          
H20      H      0.887540000000     0.220400000000     0.163550000000     0          
H20      H      0.887540000000     0.220400000000     0.663550000000     0          
H20      H      0.887540000000     0.553733333333     0.163550000000     0          
H20      H      0.887540000000     0.553733333333     0.663550000000     0          
H20      H      0.887540000000     0.887066666667     0.163550000000     0          
H20      H      0.887540000000     0.887066666667     0.663550000000     0          
H21      H      0.104340000000     0.272033333333     0.140150000000     0          
H21      H      0.104340000000     0.272033333333     0.640150000000     0          
H21      H      0.104340000000     0.605366666667     0.140150000000     0          
H21      H      0.104340000000     0.605366666667     0.640150000000     0          
H21      H      0.104340000000     0.938700000000     0.140150000000     0          
H21      H      0.104340000000     0.938700000000     0.640150000000     0          
H21      H      0.304340000000     0.272033333333     0.140150000000     0          
H21      H      0.304340000000     0.272033333333     0.640150000000     0          
H21      H      0.304340000000     0.605366666667     0.140150000000     0          
H21      H      0.304340000000     0.605366666667     0.640150000000     0          
H21      H      0.304340000000     0.938700000000     0.140150000000     0          
H21      H      0.304340000000     0.938700000000     0.640150000000     0          
H21      H      0.504340000000     0.272033333333     0.140150000000     0          
H21      H      0.504340000000     0.272033333333     0.640150000000     0          
H21      H      0.504340000000     0.605366666667     0.140150000000     0          
H21      H      0.504340000000     0.605366666667     0.640150000000     0          
H21      H      0.504340000000     0.938700000000     0.140150000000     0          
H21      H      0.504340000000     0.938700000000     0.640150000000     0          
H21      H      0.704340000000     0.272033333333     0.140150000000     0          
H21      H      0.704340000000     0.272033333333     0.640150000000     0          
H21      H      0.704340000000     0.605366666667     0.140150000000     0          
H21      H      0.704340000000     0.605366666667     0.640150000000     0          
H21      H      0.704340000000     0.938700000000     0.140150000000     0          
H21      H      0.704340000000     0.938700000000     0.640150000000     0          
H21      H      0.904340000000     0.272033333333     0.140150000000     0          
H21      H      0.904340000000     0.272033333333     0.640150000000     0          
H21      H      0.904340000000     0.605366666667     0.140150000000     0          
H21      H      0.904340000000     0.605366666667     0.640150000000     0          
H21      H      0.904340000000     0.938700000000     0.140150000000     0          
H21      H      0.904340000000     0.938700000000     0.640150000000     0          
H22      H      0.176280000000     0.318700000000     0.165450000000     0          
H22      H      0.176280000000     0.318700000000     0.665450000000     0          
H22      H      0.176280000000     0.652033333333     0.165450000000     0          
H22      H      0.176280000000     0.652033333333     0.665450000000     0          
H22      H      0.176280000000     0.985366666667     0.165450000000     0          
H22      H      0.176280000000     0.985366666667     0.665450000000     0          
H22      H      0.376280000000     0.318700000000     0.165450000000     0          
H22      H      0.376280000000     0.318700000000     0.665450000000     0          
H22      H      0.376280000000     0.652033333333     0.165450000000     0          
H22      H      0.376280000000     0.652033333333     0.665450000000     0          
H22      H      0.376280000000     0.985366666667     0.165450000000     0          
H22      H      0.376280000000     0.985366666667     0.665450000000     0          
H22      H      0.576280000000     0.318700000000     0.165450000000     0          
H22      H      0.576280000000     0.318700000000     0.665450000000     0          
H22      H      0.576280000000     0.652033333333     0.165450000000     0          
H22      H      0.576280000000     0.652033333333     0.665450000000     0          
H22      H      0.576280000000     0.985366666667     0.165450000000     0          
H22      H      0.576280000000     0.985366666667     0.665450000000     0          
H22      H      0.776280000000     0.318700000000     0.165450000000     0          
H22      H      0.776280000000     0.318700000000     0.665450000000     0          
H22      H      0.776280000000     0.652033333333     0.165450000000     0          
H22      H      0.776280000000     0.652033333333     0.665450000000     0          
H22      H      0.776280000000     0.985366666667     0.165450000000     0          
H22      H      0.776280000000     0.985366666667     0.665450000000     0          
H22      H      0.976280000000     0.318700000000     0.165450000000     0          
H22      H      0.976280000000     0.318700000000     0.665450000000     0          
H22      H      0.976280000000     0.652033333333     0.165450000000     0          
H22      H      0.976280000000     0.652033333333     0.665450000000     0          
H22      H      0.976280000000     0.985366666667     0.165450000000     0          
H22      H      0.976280000000     0.985366666667     0.665450000000     0          
H23      H      0.158680000000     0.241633333333     0.246100000000     0          
H23      H      0.158680000000     0.241633333333     0.746100000000     0          
H23      H      0.158680000000     0.574966666667     0.246100000000     0          
H23      H      0.158680000000     0.574966666667     0.746100000000     0          
H23      H      0.158680000000     0.908300000000     0.246100000000     0          
H23      H      0.158680000000     0.908300000000     0.746100000000     0          
H23      H      0.358680000000     0.241633333333     0.246100000000     0          
H23      H      0.358680000000     0.241633333333     0.746100000000     0          
H23      H      0.358680000000     0.574966666667     0.246100000000     0          
H23      H      0.358680000000     0.574966666667     0.746100000000     0          
H23      H      0.358680000000     0.908300000000     0.246100000000     0          
H23      H      0.358680000000     0.908300000000     0.746100000000     0          
H23      H      0.558680000000     0.241633333333     0.246100000000     0          
H23      H      0.558680000000     0.241633333333     0.746100000000     0          
H23      H      0.558680000000     0.574966666667     0.246100000000     0          
H23      H      0.558680000000     0.574966666667     0.746100000000     0          
H23      H      0.558680000000     0.908300000000     0.246100000000     0          
H23      H      0.558680000000     0.908300000000     0.746100000000     0          
H23      H      0.758680000000     0.241633333333     0.246100000000     0          
H23      H      0.758680000000     0.241633333333     0.746100000000     0          
H23      H      0.758680000000     0.574966666667     0.246100000000     0          
H23      H      0.758680000000     0.574966666667     0.746100000000     0          
H23      H      0.758680000000     0.908300000000     0.246100000000     0          
H23      H      0.758680000000     0.908300000000     0.746100000000     0          
H23      H      0.958680000000     0.241633333333     0.246100000000     0          
H23      H      0.958680000000     0.241633333333     0.746100000000     0          
H23      H      0.958680000000     0.574966666667     0.246100000000     0          
H23      H      0.958680000000     0.574966666667     0.746100000000     0          
H23      H      0.958680000000     0.908300000000     0.246100000000     0          
H23      H      0.958680000000     0.908300000000     0.746100000000     0          
H24      H      0.105740000000     0.208966666667     0.282100000000     0          
H24      H      0.105740000000     0.208966666667     0.782100000000     0          
H24      H      0.105740000000     0.542300000000     0.282100000000     0          
H24      H      0.105740000000     0.542300000000     0.782100000000     0          
H24      H      0.105740000000     0.875633333333     0.282100000000     0          
H24      H      0.105740000000     0.875633333333     0.782100000000     0          
H24      H      0.305740000000     0.208966666667     0.282100000000     0          
H24      H      0.305740000000     0.208966666667     0.782100000000     0          
H24      H      0.305740000000     0.542300000000     0.282100000000     0          
H24      H      0.305740000000     0.542300000000     0.782100000000     0          
H24      H      0.305740000000     0.875633333333     0.282100000000     0          
H24      H      0.305740000000     0.875633333333     0.782100000000     0          
H24      H      0.505740000000     0.208966666667     0.282100000000     0          
H24      H      0.505740000000     0.208966666667     0.782100000000     0          
H24      H      0.505740000000     0.542300000000     0.282100000000     0          
H24      H      0.505740000000     0.542300000000     0.782100000000     0          
H24      H      0.505740000000     0.875633333333     0.282100000000     0          
H24      H      0.505740000000     0.875633333333     0.782100000000     0          
H24      H      0.705740000000     0.208966666667     0.282100000000     0          
H24      H      0.705740000000     0.208966666667     0.782100000000     0          
H24      H      0.705740000000     0.542300000000     0.282100000000     0          
H24      H      0.705740000000     0.542300000000     0.782100000000     0          
H24      H      0.705740000000     0.875633333333     0.282100000000     0          
H24      H      0.705740000000     0.875633333333     0.782100000000     0          
H24      H      0.905740000000     0.208966666667     0.282100000000     0          
H24      H      0.905740000000     0.208966666667     0.782100000000     0          
H24      H      0.905740000000     0.542300000000     0.282100000000     0          
H24      H      0.905740000000     0.542300000000     0.782100000000     0          
H24      H      0.905740000000     0.875633333333     0.282100000000     0          
H24      H      0.905740000000     0.875633333333     0.782100000000     0          
H25      H      0.060080000000     0.231500000000     0.059450000000     0          
H25      H      0.060080000000     0.231500000000     0.559450000000     0          
H25      H      0.060080000000     0.564833333333     0.059450000000     0          
H25      H      0.060080000000     0.564833333333     0.559450000000     0          
H25      H      0.060080000000     0.898166666667     0.059450000000     0          
H25      H      0.060080000000     0.898166666667     0.559450000000     0          
H25      H      0.260080000000     0.231500000000     0.059450000000     0          
H25      H      0.260080000000     0.231500000000     0.559450000000     0          
H25      H      0.260080000000     0.564833333333     0.059450000000     0          
H25      H      0.260080000000     0.564833333333     0.559450000000     0          
H25      H      0.260080000000     0.898166666667     0.059450000000     0          
H25      H      0.260080000000     0.898166666667     0.559450000000     0          
H25      H      0.460080000000     0.231500000000     0.059450000000     0          
H25      H      0.460080000000     0.231500000000     0.559450000000     0          
H25      H      0.460080000000     0.564833333333     0.059450000000     0          
H25      H      0.460080000000     0.564833333333     0.559450000000     0          
H25      H      0.460080000000     0.898166666667     0.059450000000     0          
H25      H      0.460080000000     0.898166666667     0.559450000000     0          
H25      H      0.660080000000     0.231500000000     0.059450000000     0          
H25      H      0.660080000000     0.231500000000     0.559450000000     0          
H25      H      0.660080000000     0.564833333333     0.059450000000     0          
H25      H      0.660080000000     0.564833333333     0.559450000000     0          
H25      H      0.660080000000     0.898166666667     0.059450000000     0          
H25      H      0.660080000000     0.898166666667     0.559450000000     0          
H25      H      0.860080000000     0.231500000000     0.059450000000     0          
H25      H      0.860080000000     0.231500000000     0.559450000000     0          
H25      H      0.860080000000     0.564833333333     0.059450000000     0          
H25      H      0.860080000000     0.564833333333     0.559450000000     0          
H25      H      0.860080000000     0.898166666667     0.059450000000     0          
H25      H      0.860080000000     0.898166666667     0.559450000000     0          
H26      H      0.075020000000     0.243933333333     0.453050000000     0          
H26      H      0.075020000000     0.243933333333     0.953050000000     0          
H26      H      0.075020000000     0.577266666667     0.453050000000     0          
H26      H      0.075020000000     0.577266666667     0.953050000000     0          
H26      H      0.075020000000     0.910600000000     0.453050000000     0          
H26      H      0.075020000000     0.910600000000     0.953050000000     0          
H26      H      0.275020000000     0.243933333333     0.453050000000     0          
H26      H      0.275020000000     0.243933333333     0.953050000000     0          
H26      H      0.275020000000     0.577266666667     0.453050000000     0          
H26      H      0.275020000000     0.577266666667     0.953050000000     0          
H26      H      0.275020000000     0.910600000000     0.453050000000     0          
H26      H      0.275020000000     0.910600000000     0.953050000000     0          
H26      H      0.475020000000     0.243933333333     0.453050000000     0          
H26      H      0.475020000000     0.243933333333     0.953050000000     0          
H26      H      0.475020000000     0.577266666667     0.453050000000     0          
H26      H      0.475020000000     0.577266666667     0.953050000000     0          
H26      H      0.475020000000     0.910600000000     0.453050000000     0          
H26      H      0.475020000000     0.910600000000     0.953050000000     0          
H26      H      0.675020000000     0.243933333333     0.453050000000     0          
H26      H      0.675020000000     0.243933333333     0.953050000000     0          
H26      H      0.675020000000     0.577266666667     0.453050000000     0          
H26      H      0.675020000000     0.577266666667     0.953050000000     0          
H26      H      0.675020000000     0.910600000000     0.453050000000     0          
H26      H      0.675020000000     0.910600000000     0.953050000000     0          
H26      H      0.875020000000     0.243933333333     0.453050000000     0          
H26      H      0.875020000000     0.243933333333     0.953050000000     0          
H26      H      0.875020000000     0.577266666667     0.453050000000     0          
H26      H      0.875020000000     0.577266666667     0.953050000000     0          
H26      H      0.875020000000     0.910600000000     0.453050000000     0          
H26      H      0.875020000000     0.910600000000     0.953050000000     0          
H27      H      0.189180000000     0.306866666667     0.018600000000     0          
H27      H      0.189180000000     0.306866666667     0.518600000000     0          
H27      H      0.189180000000     0.640200000000     0.018600000000     0          
H27      H      0.189180000000     0.640200000000     0.518600000000     0          
H27      H      0.189180000000     0.973533333333     0.018600000000     0          
H27      H      0.189180000000     0.973533333333     0.518600000000     0          
H27      H      0.389180000000     0.306866666667     0.018600000000     0          
H27      H      0.389180000000     0.306866666667     0.518600000000     0          
H27      H      0.389180000000     0.640200000000     0.018600000000     0          
H27      H      0.389180000000     0.640200000000     0.518600000000     0          
H27      H      0.389180000000     0.973533333333     0.018600000000     0          
H27      H      0.389180000000     0.973533333333     0.518600000000     0          
H27      H      0.589180000000     0.306866666667     0.018600000000     0          
H27      H      0.589180000000     0.306866666667     0.518600000000     0          
H27      H      0.589180000000     0.640200000000     0.018600000000     0          
H27      H      0.589180000000     0.640200000000     0.518600000000     0          
H27      H      0.589180000000     0.973533333333     0.018600000000     0          
H27      H      0.589180000000     0.973533333333     0.518600000000     0          
H27      H      0.789180000000     0.306866666667     0.018600000000     0          
H27      H      0.789180000000     0.306866666667     0.518600000000     0          
H27      H      0.789180000000     0.640200000000     0.018600000000     0          
H27      H      0.789180000000     0.640200000000     0.518600000000     0          
H27      H      0.789180000000     0.973533333333     0.018600000000     0          
H27      H      0.789180000000     0.973533333333     0.518600000000     0          
H27      H      0.989180000000     0.306866666667     0.018600000000     0          
H27      H      0.989180000000     0.306866666667     0.518600000000     0          
H27      H      0.989180000000     0.640200000000     0.018600000000     0          
H27      H      0.989180000000     0.640200000000     0.518600000000     0          
H27      H      0.989180000000     0.973533333333     0.018600000000     0          
H27      H      0.989180000000     0.973533333333     0.518600000000     0          
H28      H      0.187540000000     0.279600000000     0.086450000000     0          
H28      H      0.187540000000     0.279600000000     0.586450000000     0          
H28      H      0.187540000000     0.612933333333     0.086450000000     0          
H28      H      0.187540000000     0.612933333333     0.586450000000     0          
H28      H      0.187540000000     0.946266666667     0.086450000000     0          
H28      H      0.187540000000     0.946266666667     0.586450000000     0          
H28      H      0.387540000000     0.279600000000     0.086450000000     0          
H28      H      0.387540000000     0.279600000000     0.586450000000     0          
H28      H      0.387540000000     0.612933333333     0.086450000000     0          
H28      H      0.387540000000     0.612933333333     0.586450000000     0          
H28      H      0.387540000000     0.946266666667     0.086450000000     0          
H28      H      0.387540000000     0.946266666667     0.586450000000     0          
H28      H      0.587540000000     0.279600000000     0.086450000000     0          
H28      H      0.587540000000     0.279600000000     0.586450000000     0          
H28      H      0.587540000000     0.612933333333     0.086450000000     0          
H28      H      0.587540000000     0.612933333333     0.586450000000     0          
H28      H      0.587540000000     0.946266666667     0.086450000000     0          
H28      H      0.587540000000     0.946266666667     0.586450000000     0          
H28      H      0.787540000000     0.279600000000     0.086450000000     0          
H28      H      0.787540000000     0.279600000000     0.586450000000     0          
H28      H      0.787540000000     0.612933333333     0.086450000000     0          
H28      H      0.787540000000     0.612933333333     0.586450000000     0          
H28      H      0.787540000000     0.946266666667     0.086450000000     0          
H28      H      0.787540000000     0.946266666667     0.586450000000     0          
H28      H      0.987540000000     0.279600000000     0.086450000000     0          
H28      H      0.987540000000     0.279600000000     0.586450000000     0          
H28      H      0.987540000000     0.612933333333     0.086450000000     0          
H28      H      0.987540000000     0.612933333333     0.586450000000     0          
H28      H      0.987540000000     0.946266666667     0.086450000000     0          
H28      H      0.987540000000     0.946266666667     0.586450000000     0          
H29      H      0.004340000000     0.227966666667     0.109850000000     0          
H29      H      0.004340000000     0.227966666667     0.609850000000     0          
H29      H      0.004340000000     0.561300000000     0.109850000000     0          
H29      H      0.004340000000     0.561300000000     0.609850000000     0          
H29      H      0.004340000000     0.894633333333     0.109850000000     0          
H29      H      0.004340000000     0.894633333333     0.609850000000     0          
H29      H      0.204340000000     0.227966666667     0.109850000000     0          
H29      H      0.204340000000     0.227966666667     0.609850000000     0          
H29      H      0.204340000000     0.561300000000     0.109850000000     0          
H29      H      0.204340000000     0.561300000000     0.609850000000     0          
H29      H      0.204340000000     0.894633333333     0.109850000000     0          
H29      H      0.204340000000     0.894633333333     0.609850000000     0          
H29      H      0.404340000000     0.227966666667     0.109850000000     0          
H29      H      0.404340000000     0.227966666667     0.609850000000     0          
H29      H      0.404340000000     0.561300000000     0.109850000000     0          
H29      H      0.404340000000     0.561300000000     0.609850000000     0          
H29      H      0.404340000000     0.894633333333     0.109850000000     0          
H29      H      0.404340000000     0.894633333333     0.609850000000     0          
H29      H      0.604340000000     0.227966666667     0.109850000000     0          
H29      H      0.604340000000     0.227966666667     0.609850000000     0          
H29      H      0.604340000000     0.561300000000     0.109850000000     0          
H29      H      0.604340000000     0.561300000000     0.609850000000     0          
H29      H      0.604340000000     0.894633333333     0.109850000000     0          
H29      H      0.604340000000     0.894633333333     0.609850000000     0          
H29      H      0.804340000000     0.227966666667     0.109850000000     0          
H29      H      0.804340000000     0.227966666667     0.609850000000     0          
H29      H      0.804340000000     0.561300000000     0.109850000000     0          
H29      H      0.804340000000     0.561300000000     0.609850000000     0          
H29      H      0.804340000000     0.894633333333     0.109850000000     0          
H29      H      0.804340000000     0.894633333333     0.609850000000     0          
H30      H      0.076280000000     0.181300000000     0.084550000000     0          
H30      H      0.076280000000     0.181300000000     0.584550000000     0          
H30      H      0.076280000000     0.514633333333     0.084550000000     0          
H30      H      0.076280000000     0.514633333333     0.584550000000     0          
H30      H      0.076280000000     0.847966666667     0.084550000000     0          
H30      H      0.076280000000     0.847966666667     0.584550000000     0          
H30      H      0.276280000000     0.181300000000     0.084550000000     0          
H30      H      0.276280000000     0.181300000000     0.584550000000     0          
H30      H      0.276280000000     0.514633333333     0.084550000000     0          
H30      H      0.276280000000     0.514633333333     0.584550000000     0          
H30      H      0.276280000000     0.847966666667     0.084550000000     0          
H30      H      0.276280000000     0.847966666667     0.584550000000     0          
H30      H      0.476280000000     0.181300000000     0.084550000000     0          
H30      H      0.476280000000     0.181300000000     0.584550000000     0          
H30      H      0.476280000000     0.514633333333     0.084550000000     0          
H30      H      0.476280000000     0.514633333333     0.584550000000     0          
H30      H      0.476280000000     0.847966666667     0.084550000000     0          
H30      H      0.476280000000     0.847966666667     0.584550000000     0          
H30      H      0.676280000000     0.181300000000     0.084550000000     0          
H30      H      0.676280000000     0.181300000000     0.584550000000     0          
H30      H      0.676280000000     0.514633333333     0.084550000000     0          
H30      H      0.676280000000     0.514633333333     0.584550000000     0          
H30      H      0.676280000000     0.847966666667     0.084550000000     0          
H30      H      0.676280000000     0.847966666667     0.584550000000     0          
H30      H      0.876280000000     0.181300000000     0.084550000000     0          
H30      H      0.876280000000     0.181300000000     0.584550000000     0          
H30      H      0.876280000000     0.514633333333     0.084550000000     0          
H30      H      0.876280000000     0.514633333333     0.584550000000     0          
H30      H      0.876280000000     0.847966666667     0.084550000000     0          
H30      H      0.876280000000     0.847966666667     0.584550000000     0          
H31      H      0.058680000000     0.258366666667     0.003900000000     0          
H31      H      0.058680000000     0.258366666667     0.503900000000     0          
H31      H      0.058680000000     0.591700000000     0.003900000000     0          
H31      H      0.058680000000     0.591700000000     0.503900000000     0          
H31      H      0.058680000000     0.925033333333     0.003900000000     0          
H31      H      0.058680000000     0.925033333333     0.503900000000     0          
H31      H      0.258680000000     0.258366666667     0.003900000000     0          
H31      H      0.258680000000     0.258366666667     0.503900000000     0          
H31      H      0.258680000000     0.591700000000     0.003900000000     0          
H31      H      0.258680000000     0.591700000000     0.503900000000     0          
H31      H      0.258680000000     0.925033333333     0.003900000000     0          
H31      H      0.258680000000     0.925033333333     0.503900000000     0          
H31      H      0.458680000000     0.258366666667     0.003900000000     0          
H31      H      0.458680000000     0.258366666667     0.503900000000     0          
H31      H      0.458680000000     0.591700000000     0.003900000000     0          
H31      H      0.458680000000     0.591700000000     0.503900000000     0          
H31      H      0.458680000000     0.925033333333     0.003900000000     0          
H31      H      0.458680000000     0.925033333333     0.503900000000     0          
H31      H      0.658680000000     0.258366666667     0.003900000000     0          
H31      H      0.658680000000     0.258366666667     0.503900000000     0          
H31      H      0.658680000000     0.591700000000     0.003900000000     0          
H31      H      0.658680000000     0.591700000000     0.503900000000     0          
H31      H      0.658680000000     0.925033333333     0.003900000000     0          
H31      H      0.658680000000     0.925033333333     0.503900000000     0          
H31      H      0.858680000000     0.258366666667     0.003900000000     0          
H31      H      0.858680000000     0.258366666667     0.503900000000     0          
H31      H      0.858680000000     0.591700000000     0.003900000000     0          
H31      H      0.858680000000     0.591700000000     0.503900000000     0          
H31      H      0.858680000000     0.925033333333     0.003900000000     0          
H31      H      0.858680000000     0.925033333333     0.503900000000     0          
H32      H      0.005740000000     0.291033333333     0.467900000000     0          
H32      H      0.005740000000     0.291033333333     0.967900000000     0          
H32      H      0.005740000000     0.624366666667     0.467900000000     0          
H32      H      0.005740000000     0.624366666667     0.967900000000     0          
H32      H      0.005740000000     0.957700000000     0.467900000000     0          
H32      H      0.005740000000     0.957700000000     0.967900000000     0          
H32      H      0.205740000000     0.291033333333     0.467900000000     0          
H32      H      0.205740000000     0.291033333333     0.967900000000     0          
H32      H      0.205740000000     0.624366666667     0.467900000000     0          
H32      H      0.205740000000     0.624366666667     0.967900000000     0          
H32      H      0.205740000000     0.957700000000     0.467900000000     0          
H32      H      0.205740000000     0.957700000000     0.967900000000     0          
H32      H      0.405740000000     0.291033333333     0.467900000000     0          
H32      H      0.405740000000     0.291033333333     0.967900000000     0          
H32      H      0.405740000000     0.624366666667     0.467900000000     0          
H32      H      0.405740000000     0.624366666667     0.967900000000     0          
H32      H      0.405740000000     0.957700000000     0.467900000000     0          
H32      H      0.405740000000     0.957700000000     0.967900000000     0          
H32      H      0.605740000000     0.291033333333     0.467900000000     0          
H32      H      0.605740000000     0.291033333333     0.967900000000     0          
H32      H      0.605740000000     0.624366666667     0.467900000000     0          
H32      H      0.605740000000     0.624366666667     0.967900000000     0          
H32      H      0.605740000000     0.957700000000     0.467900000000     0          
H32      H      0.605740000000     0.957700000000     0.967900000000     0          
H32      H      0.805740000000     0.291033333333     0.467900000000     0          
H32      H      0.805740000000     0.291033333333     0.967900000000     0          
H32      H      0.805740000000     0.624366666667     0.467900000000     0          
H32      H      0.805740000000     0.624366666667     0.967900000000     0          
H32      H      0.805740000000     0.957700000000     0.467900000000     0          
H32      H      0.805740000000     0.957700000000     0.967900000000     0          
C1       C      0.148280000000     0.001513333333     0.367445000000     0          
C1       C      0.148280000000     0.001513333333     0.867445000000     0          
C1       C      0.148280000000     0.334846666667     0.367445000000     0          
C1       C      0.148280000000     0.334846666667     0.867445000000     0          
C1       C      0.148280000000     0.668180000000     0.367445000000     0          
C1       C      0.148280000000     0.668180000000     0.867445000000     0          
C1       C      0.348280000000     0.001513333333     0.367445000000     0          
C1       C      0.348280000000     0.001513333333     0.867445000000     0          
C1       C      0.348280000000     0.334846666667     0.367445000000     0          
C1       C      0.348280000000     0.334846666667     0.867445000000     0          
C1       C      0.348280000000     0.668180000000     0.367445000000     0          
C1       C      0.348280000000     0.668180000000     0.867445000000     0          
C1       C      0.548280000000     0.001513333333     0.367445000000     0          
C1       C      0.548280000000     0.001513333333     0.867445000000     0          
C1       C      0.548280000000     0.334846666667     0.367445000000     0          
C1       C      0.548280000000     0.334846666667     0.867445000000     0          
C1       C      0.548280000000     0.668180000000     0.367445000000     0          
C1       C      0.548280000000     0.668180000000     0.867445000000     0          
C1       C      0.748280000000     0.001513333333     0.367445000000     0          
C1       C      0.748280000000     0.001513333333     0.867445000000     0          
C1       C      0.748280000000     0.334846666667     0.367445000000     0          
C1       C      0.748280000000     0.334846666667     0.867445000000     0          
C1       C      0.748280000000     0.668180000000     0.367445000000     0          
C1       C      0.748280000000     0.668180000000     0.867445000000     0          
C1       C      0.948280000000     0.001513333333     0.367445000000     0          
C1       C      0.948280000000     0.001513333333     0.867445000000     0          
C1       C      0.948280000000     0.334846666667     0.367445000000     0          
C1       C      0.948280000000     0.334846666667     0.867445000000     0          
C1       C      0.948280000000     0.668180000000     0.367445000000     0          
C1       C      0.948280000000     0.668180000000     0.867445000000     0          
C2       C      0.147860000000     0.092246666667     0.172465000000     0          
C2       C      0.147860000000     0.092246666667     0.672465000000     0          
C2       C      0.147860000000     0.425580000000     0.172465000000     0          
C2       C      0.147860000000     0.425580000000     0.672465000000     0          
C2       C      0.147860000000     0.758913333333     0.172465000000     0          
C2       C      0.147860000000     0.758913333333     0.672465000000     0          
C2       C      0.347860000000     0.092246666667     0.172465000000     0          
C2       C      0.347860000000     0.092246666667     0.672465000000     0          
C2       C      0.347860000000     0.425580000000     0.172465000000     0          
C2       C      0.347860000000     0.425580000000     0.672465000000     0          
C2       C      0.347860000000     0.758913333333     0.172465000000     0          
C2       C      0.347860000000     0.758913333333     0.672465000000     0          
C2       C      0.547860000000     0.092246666667     0.172465000000     0          
C2       C      0.547860000000     0.092246666667     0.672465000000     0          
C2       C      0.547860000000     0.425580000000     0.172465000000     0          
C2       C      0.547860000000     0.425580000000     0.672465000000     0          
C2       C      0.547860000000     0.758913333333     0.172465000000     0          
C2       C      0.547860000000     0.758913333333     0.672465000000     0          
C2       C      0.747860000000     0.092246666667     0.172465000000     0          
C2       C      0.747860000000     0.092246666667     0.672465000000     0          
C2       C      0.747860000000     0.425580000000     0.172465000000     0          
C2       C      0.747860000000     0.425580000000     0.672465000000     0          
C2       C      0.747860000000     0.758913333333     0.172465000000     0          
C2       C      0.747860000000     0.758913333333     0.672465000000     0          
C2       C      0.947860000000     0.092246666667     0.172465000000     0          
C2       C      0.947860000000     0.092246666667     0.672465000000     0          
C2       C      0.947860000000     0.425580000000     0.172465000000     0          
C2       C      0.947860000000     0.425580000000     0.672465000000     0          
C2       C      0.947860000000     0.758913333333     0.172465000000     0          
C2       C      0.947860000000     0.758913333333     0.672465000000     0          
C3       C      0.178160000000     0.118353333333     0.265680000000     0          
C3       C      0.178160000000     0.118353333333     0.765680000000     0          
C3       C      0.178160000000     0.451686666667     0.265680000000     0          
C3       C      0.178160000000     0.451686666667     0.765680000000     0          
C3       C      0.178160000000     0.785020000000     0.265680000000     0          
C3       C      0.178160000000     0.785020000000     0.765680000000     0          
C3       C      0.378160000000     0.118353333333     0.265680000000     0          
C3       C      0.378160000000     0.118353333333     0.765680000000     0          
C3       C      0.378160000000     0.451686666667     0.265680000000     0          
C3       C      0.378160000000     0.451686666667     0.765680000000     0          
C3       C      0.378160000000     0.785020000000     0.265680000000     0          
C3       C      0.378160000000     0.785020000000     0.765680000000     0          
C3       C      0.578160000000     0.118353333333     0.265680000000     0          
C3       C      0.578160000000     0.118353333333     0.765680000000     0          
C3       C      0.578160000000     0.451686666667     0.265680000000     0          
C3       C      0.578160000000     0.451686666667     0.765680000000     0          
C3       C      0.578160000000     0.785020000000     0.265680000000     0          
C3       C      0.578160000000     0.785020000000     0.765680000000     0          
C3       C      0.778160000000     0.118353333333     0.265680000000     0          
C3       C      0.778160000000     0.118353333333     0.765680000000     0          
C3       C      0.778160000000     0.451686666667     0.265680000000     0          
C3       C      0.778160000000     0.451686666667     0.765680000000     0          
C3       C      0.778160000000     0.785020000000     0.265680000000     0          
C3       C      0.778160000000     0.785020000000     0.765680000000     0          
C3       C      0.978160000000     0.118353333333     0.265680000000     0          
C3       C      0.978160000000     0.118353333333     0.765680000000     0          
C3       C      0.978160000000     0.451686666667     0.265680000000     0          
C3       C      0.978160000000     0.451686666667     0.765680000000     0          
C3       C      0.978160000000     0.785020000000     0.265680000000     0          
C3       C      0.978160000000     0.785020000000     0.765680000000     0          
C4       C      0.177920000000     0.093686666667     0.321095000000     0          
C4       C      0.177920000000     0.093686666667     0.821095000000     0          
C4       C      0.177920000000     0.427020000000     0.321095000000     0          
C4       C      0.177920000000     0.427020000000     0.821095000000     0          
C4       C      0.177920000000     0.760353333333     0.321095000000     0          
C4       C      0.177920000000     0.760353333333     0.821095000000     0          
C4       C      0.377920000000     0.093686666667     0.321095000000     0          
C4       C      0.377920000000     0.093686666667     0.821095000000     0          
C4       C      0.377920000000     0.427020000000     0.321095000000     0          
C4       C      0.377920000000     0.427020000000     0.821095000000     0          
C4       C      0.377920000000     0.760353333333     0.321095000000     0          
C4       C      0.377920000000     0.760353333333     0.821095000000     0          
C4       C      0.577920000000     0.093686666667     0.321095000000     0          
C4       C      0.577920000000     0.093686666667     0.821095000000     0          
C4       C      0.577920000000     0.427020000000     0.321095000000     0          
C4       C      0.577920000000     0.427020000000     0.821095000000     0          
C4       C      0.577920000000     0.760353333333     0.321095000000     0          
C4       C      0.577920000000     0.760353333333     0.821095000000     0          
C4       C      0.777920000000     0.093686666667     0.321095000000     0          
C4       C      0.777920000000     0.093686666667     0.821095000000     0          
C4       C      0.777920000000     0.427020000000     0.321095000000     0          
C4       C      0.777920000000     0.427020000000     0.821095000000     0          
C4       C      0.777920000000     0.760353333333     0.321095000000     0          
C4       C      0.777920000000     0.760353333333     0.821095000000     0          
C4       C      0.977920000000     0.093686666667     0.321095000000     0          
C4       C      0.977920000000     0.093686666667     0.821095000000     0          
C4       C      0.977920000000     0.427020000000     0.321095000000     0          
C4       C      0.977920000000     0.427020000000     0.821095000000     0          
C4       C      0.977920000000     0.760353333333     0.321095000000     0          
C4       C      0.977920000000     0.760353333333     0.821095000000     0          
C5       C      0.011340000000     0.064320000000     0.319980000000     0          
C5       C      0.011340000000     0.064320000000     0.819980000000     0          
C5       C      0.011340000000     0.397653333333     0.319980000000     0          
C5       C      0.011340000000     0.397653333333     0.819980000000     0          
C5       C      0.011340000000     0.730986666667     0.319980000000     0          
C5       C      0.011340000000     0.730986666667     0.819980000000     0          
C5       C      0.211340000000     0.064320000000     0.319980000000     0          
C5       C      0.211340000000     0.064320000000     0.819980000000     0          
C5       C      0.211340000000     0.397653333333     0.319980000000     0          
C5       C      0.211340000000     0.397653333333     0.819980000000     0          
C5       C      0.211340000000     0.730986666667     0.319980000000     0          
C5       C      0.211340000000     0.730986666667     0.819980000000     0          
C5       C      0.411340000000     0.064320000000     0.319980000000     0          
C5       C      0.411340000000     0.064320000000     0.819980000000     0          
C5       C      0.411340000000     0.397653333333     0.319980000000     0          
C5       C      0.411340000000     0.397653333333     0.819980000000     0          
C5       C      0.411340000000     0.730986666667     0.319980000000     0          
C5       C      0.411340000000     0.730986666667     0.819980000000     0          
C5       C      0.611340000000     0.064320000000     0.319980000000     0          
C5       C      0.611340000000     0.064320000000     0.819980000000     0          
C5       C      0.611340000000     0.397653333333     0.319980000000     0          
C5       C      0.611340000000     0.397653333333     0.819980000000     0          
C5       C      0.611340000000     0.730986666667     0.319980000000     0          
C5       C      0.611340000000     0.730986666667     0.819980000000     0          
C5       C      0.811340000000     0.064320000000     0.319980000000     0          
C5       C      0.811340000000     0.064320000000     0.819980000000     0          
C5       C      0.811340000000     0.397653333333     0.319980000000     0          
C5       C      0.811340000000     0.397653333333     0.819980000000     0          
C5       C      0.811340000000     0.730986666667     0.319980000000     0          
C5       C      0.811340000000     0.730986666667     0.819980000000     0          
C6       C      0.002280000000     0.090083333333     0.216140000000     0          
C6       C      0.002280000000     0.090083333333     0.716140000000     0          
C6       C      0.002280000000     0.423416666667     0.216140000000     0          
C6       C      0.002280000000     0.423416666667     0.716140000000     0          
C6       C      0.002280000000     0.756750000000     0.216140000000     0          
C6       C      0.002280000000     0.756750000000     0.716140000000     0          
C6       C      0.202280000000     0.090083333333     0.216140000000     0          
C6       C      0.202280000000     0.090083333333     0.716140000000     0          
C6       C      0.202280000000     0.423416666667     0.216140000000     0          
C6       C      0.202280000000     0.423416666667     0.716140000000     0          
C6       C      0.202280000000     0.756750000000     0.216140000000     0          
C6       C      0.202280000000     0.756750000000     0.716140000000     0          
C6       C      0.402280000000     0.090083333333     0.216140000000     0          
C6       C      0.402280000000     0.090083333333     0.716140000000     0          
C6       C      0.402280000000     0.423416666667     0.216140000000     0          
C6       C      0.402280000000     0.423416666667     0.716140000000     0          
C6       C      0.402280000000     0.756750000000     0.216140000000     0          
C6       C      0.402280000000     0.756750000000     0.716140000000     0          
C6       C      0.602280000000     0.090083333333     0.216140000000     0          
C6       C      0.602280000000     0.090083333333     0.716140000000     0          
C6       C      0.602280000000     0.423416666667     0.216140000000     0          
C6       C      0.602280000000     0.423416666667     0.716140000000     0          
C6       C      0.602280000000     0.756750000000     0.216140000000     0          
C6       C      0.602280000000     0.756750000000     0.716140000000     0          
C6       C      0.802280000000     0.090083333333     0.216140000000     0          
C6       C      0.802280000000     0.090083333333     0.716140000000     0          
C6       C      0.802280000000     0.423416666667     0.216140000000     0          
C6       C      0.802280000000     0.423416666667     0.716140000000     0          
C6       C      0.802280000000     0.756750000000     0.216140000000     0          
C6       C      0.802280000000     0.756750000000     0.716140000000     0          
C7       C      0.158540000000     0.100426666667     0.205345000000     0          
C7       C      0.158540000000     0.100426666667     0.705345000000     0          
C7       C      0.158540000000     0.433760000000     0.205345000000     0          
C7       C      0.158540000000     0.433760000000     0.705345000000     0          
C7       C      0.158540000000     0.767093333333     0.205345000000     0          
C7       C      0.158540000000     0.767093333333     0.705345000000     0          
C7       C      0.358540000000     0.100426666667     0.205345000000     0          
C7       C      0.358540000000     0.100426666667     0.705345000000     0          
C7       C      0.358540000000     0.433760000000     0.205345000000     0          
C7       C      0.358540000000     0.433760000000     0.705345000000     0          
C7       C      0.358540000000     0.767093333333     0.205345000000     0          
C7       C      0.358540000000     0.767093333333     0.705345000000     0          
C7       C      0.558540000000     0.100426666667     0.205345000000     0          
C7       C      0.558540000000     0.100426666667     0.705345000000     0          
C7       C      0.558540000000     0.433760000000     0.205345000000     0          
C7       C      0.558540000000     0.433760000000     0.705345000000     0          
C7       C      0.558540000000     0.767093333333     0.205345000000     0          
C7       C      0.558540000000     0.767093333333     0.705345000000     0          
C7       C      0.758540000000     0.100426666667     0.205345000000     0          
C7       C      0.758540000000     0.100426666667     0.705345000000     0          
C7       C      0.758540000000     0.433760000000     0.205345000000     0          
C7       C      0.758540000000     0.433760000000     0.705345000000     0          
C7       C      0.758540000000     0.767093333333     0.205345000000     0          
C7       C      0.758540000000     0.767093333333     0.705345000000     0          
C7       C      0.958540000000     0.100426666667     0.205345000000     0          
C7       C      0.958540000000     0.100426666667     0.705345000000     0          
C7       C      0.958540000000     0.433760000000     0.205345000000     0          
C7       C      0.958540000000     0.433760000000     0.705345000000     0          
C7       C      0.958540000000     0.767093333333     0.205345000000     0          
C7       C      0.958540000000     0.767093333333     0.705345000000     0          
C8       C      0.133740000000     0.127813333333     0.255400000000     0          
C8       C      0.133740000000     0.127813333333     0.755400000000     0          
C8       C      0.133740000000     0.461146666667     0.255400000000     0          
C8       C      0.133740000000     0.461146666667     0.755400000000     0          
C8       C      0.133740000000     0.794480000000     0.255400000000     0          
C8       C      0.133740000000     0.794480000000     0.755400000000     0          
C8       C      0.333740000000     0.127813333333     0.255400000000     0          
C8       C      0.333740000000     0.127813333333     0.755400000000     0          
C8       C      0.333740000000     0.461146666667     0.255400000000     0          
C8       C      0.333740000000     0.461146666667     0.755400000000     0          
C8       C      0.333740000000     0.794480000000     0.255400000000     0          
C8       C      0.333740000000     0.794480000000     0.755400000000     0          
C8       C      0.533740000000     0.127813333333     0.255400000000     0          
C8       C      0.533740000000     0.127813333333     0.755400000000     0          
C8       C      0.533740000000     0.461146666667     0.255400000000     0          
C8       C      0.533740000000     0.461146666667     0.755400000000     0          
C8       C      0.533740000000     0.794480000000     0.255400000000     0          
C8       C      0.533740000000     0.794480000000     0.755400000000     0          
C8       C      0.733740000000     0.127813333333     0.255400000000     0          
C8       C      0.733740000000     0.127813333333     0.755400000000     0          
C8       C      0.733740000000     0.461146666667     0.255400000000     0          
C8       C      0.733740000000     0.461146666667     0.755400000000     0          
C8       C      0.733740000000     0.794480000000     0.255400000000     0          
C8       C      0.733740000000     0.794480000000     0.755400000000     0          
C8       C      0.933740000000     0.127813333333     0.255400000000     0          
C8       C      0.933740000000     0.127813333333     0.755400000000     0          
C8       C      0.933740000000     0.461146666667     0.255400000000     0          
C8       C      0.933740000000     0.461146666667     0.755400000000     0          
C8       C      0.933740000000     0.794480000000     0.255400000000     0          
C8       C      0.933740000000     0.794480000000     0.755400000000     0          
C9       C      0.134560000000     0.093163333333     0.335950000000     0          
C9       C      0.134560000000     0.093163333333     0.835950000000     0          
C9       C      0.134560000000     0.426496666667     0.335950000000     0          
C9       C      0.134560000000     0.426496666667     0.835950000000     0          
C9       C      0.134560000000     0.759830000000     0.335950000000     0          
C9       C      0.134560000000     0.759830000000     0.835950000000     0          
C9       C      0.334560000000     0.093163333333     0.335950000000     0          
C9       C      0.334560000000     0.093163333333     0.835950000000     0          
C9       C      0.334560000000     0.426496666667     0.335950000000     0          
C9       C      0.334560000000     0.426496666667     0.835950000000     0          
C9       C      0.334560000000     0.759830000000     0.335950000000     0          
C9       C      0.334560000000     0.759830000000     0.835950000000     0          
C9       C      0.534560000000     0.093163333333     0.335950000000     0          
C9       C      0.534560000000     0.093163333333     0.835950000000     0          
C9       C      0.534560000000     0.426496666667     0.335950000000     0          
C9       C      0.534560000000     0.426496666667     0.835950000000     0          
C9       C      0.534560000000     0.759830000000     0.335950000000     0          
C9       C      0.534560000000     0.759830000000     0.835950000000     0          
C9       C      0.734560000000     0.093163333333     0.335950000000     0          
C9       C      0.734560000000     0.093163333333     0.835950000000     0          
C9       C      0.734560000000     0.426496666667     0.335950000000     0          
C9       C      0.734560000000     0.426496666667     0.835950000000     0          
C9       C      0.734560000000     0.759830000000     0.335950000000     0          
C9       C      0.734560000000     0.759830000000     0.835950000000     0          
C9       C      0.934560000000     0.093163333333     0.335950000000     0          
C9       C      0.934560000000     0.093163333333     0.835950000000     0          
C9       C      0.934560000000     0.426496666667     0.335950000000     0          
C9       C      0.934560000000     0.426496666667     0.835950000000     0          
C9       C      0.934560000000     0.759830000000     0.335950000000     0          
C9       C      0.934560000000     0.759830000000     0.835950000000     0          
C10      C      0.124880000000     0.062413333333     0.350125000000     0          
C10      C      0.124880000000     0.062413333333     0.850125000000     0          
C10      C      0.124880000000     0.395746666667     0.350125000000     0          
C10      C      0.124880000000     0.395746666667     0.850125000000     0          
C10      C      0.124880000000     0.729080000000     0.350125000000     0          
C10      C      0.124880000000     0.729080000000     0.850125000000     0          
C10      C      0.324880000000     0.062413333333     0.350125000000     0          
C10      C      0.324880000000     0.062413333333     0.850125000000     0          
C10      C      0.324880000000     0.395746666667     0.350125000000     0          
C10      C      0.324880000000     0.395746666667     0.850125000000     0          
C10      C      0.324880000000     0.729080000000     0.350125000000     0          
C10      C      0.324880000000     0.729080000000     0.850125000000     0          
C10      C      0.524880000000     0.062413333333     0.350125000000     0          
C10      C      0.524880000000     0.062413333333     0.850125000000     0          
C10      C      0.524880000000     0.395746666667     0.350125000000     0          
C10      C      0.524880000000     0.395746666667     0.850125000000     0          
C10      C      0.524880000000     0.729080000000     0.350125000000     0          
C10      C      0.524880000000     0.729080000000     0.850125000000     0          
C10      C      0.724880000000     0.062413333333     0.350125000000     0          
C10      C      0.724880000000     0.062413333333     0.850125000000     0          
C10      C      0.724880000000     0.395746666667     0.350125000000     0          
C10      C      0.724880000000     0.395746666667     0.850125000000     0          
C10      C      0.724880000000     0.729080000000     0.350125000000     0          
C10      C      0.724880000000     0.729080000000     0.850125000000     0          
C10      C      0.924880000000     0.062413333333     0.350125000000     0          
C10      C      0.924880000000     0.062413333333     0.850125000000     0          
C10      C      0.924880000000     0.395746666667     0.350125000000     0          
C10      C      0.924880000000     0.395746666667     0.850125000000     0          
C10      C      0.924880000000     0.729080000000     0.350125000000     0          
C10      C      0.924880000000     0.729080000000     0.850125000000     0          
C11      C      0.001420000000     0.034206666667     0.334800000000     0          
C11      C      0.001420000000     0.034206666667     0.834800000000     0          
C11      C      0.001420000000     0.367540000000     0.334800000000     0          
C11      C      0.001420000000     0.367540000000     0.834800000000     0          
C11      C      0.001420000000     0.700873333333     0.334800000000     0          
C11      C      0.001420000000     0.700873333333     0.834800000000     0          
C11      C      0.201420000000     0.034206666667     0.334800000000     0          
C11      C      0.201420000000     0.034206666667     0.834800000000     0          
C11      C      0.201420000000     0.367540000000     0.334800000000     0          
C11      C      0.201420000000     0.367540000000     0.834800000000     0          
C11      C      0.201420000000     0.700873333333     0.334800000000     0          
C11      C      0.201420000000     0.700873333333     0.834800000000     0          
C11      C      0.401420000000     0.034206666667     0.334800000000     0          
C11      C      0.401420000000     0.034206666667     0.834800000000     0          
C11      C      0.401420000000     0.367540000000     0.334800000000     0          
C11      C      0.401420000000     0.367540000000     0.834800000000     0          
C11      C      0.401420000000     0.700873333333     0.334800000000     0          
C11      C      0.401420000000     0.700873333333     0.834800000000     0          
C11      C      0.601420000000     0.034206666667     0.334800000000     0          
C11      C      0.601420000000     0.034206666667     0.834800000000     0          
C11      C      0.601420000000     0.367540000000     0.334800000000     0          
C11      C      0.601420000000     0.367540000000     0.834800000000     0          
C11      C      0.601420000000     0.700873333333     0.334800000000     0          
C11      C      0.601420000000     0.700873333333     0.834800000000     0          
C11      C      0.801420000000     0.034206666667     0.334800000000     0          
C11      C      0.801420000000     0.034206666667     0.834800000000     0          
C11      C      0.801420000000     0.367540000000     0.334800000000     0          
C11      C      0.801420000000     0.367540000000     0.834800000000     0          
C11      C      0.801420000000     0.700873333333     0.334800000000     0          
C11      C      0.801420000000     0.700873333333     0.834800000000     0          
C12      C      0.012200000000     0.098850000000     0.246525000000     0          
C12      C      0.012200000000     0.098850000000     0.746525000000     0          
C12      C      0.012200000000     0.432183333333     0.246525000000     0          
C12      C      0.012200000000     0.432183333333     0.746525000000     0          
C12      C      0.012200000000     0.765516666667     0.246525000000     0          
C12      C      0.012200000000     0.765516666667     0.746525000000     0          
C12      C      0.212200000000     0.098850000000     0.246525000000     0          
C12      C      0.212200000000     0.098850000000     0.746525000000     0          
C12      C      0.212200000000     0.432183333333     0.246525000000     0          
C12      C      0.212200000000     0.432183333333     0.746525000000     0          
C12      C      0.212200000000     0.765516666667     0.246525000000     0          
C12      C      0.212200000000     0.765516666667     0.746525000000     0          
C12      C      0.412200000000     0.098850000000     0.246525000000     0          
C12      C      0.412200000000     0.098850000000     0.746525000000     0          
C12      C      0.412200000000     0.432183333333     0.246525000000     0          
C12      C      0.412200000000     0.432183333333     0.746525000000     0          
C12      C      0.412200000000     0.765516666667     0.246525000000     0          
C12      C      0.412200000000     0.765516666667     0.746525000000     0          
C12      C      0.612200000000     0.098850000000     0.246525000000     0          
C12      C      0.612200000000     0.098850000000     0.746525000000     0          
C12      C      0.612200000000     0.432183333333     0.246525000000     0          
C12      C      0.612200000000     0.432183333333     0.746525000000     0          
C12      C      0.612200000000     0.765516666667     0.246525000000     0          
C12      C      0.612200000000     0.765516666667     0.746525000000     0          
C12      C      0.812200000000     0.098850000000     0.246525000000     0          
C12      C      0.812200000000     0.098850000000     0.746525000000     0          
C12      C      0.812200000000     0.432183333333     0.246525000000     0          
C12      C      0.812200000000     0.432183333333     0.746525000000     0          
C12      C      0.812200000000     0.765516666667     0.246525000000     0          
C12      C      0.812200000000     0.765516666667     0.746525000000     0          
C13      C      0.158340000000     0.033273333333     0.349970000000     0          
C13      C      0.158340000000     0.033273333333     0.849970000000     0          
C13      C      0.158340000000     0.366606666667     0.349970000000     0          
C13      C      0.158340000000     0.366606666667     0.849970000000     0          
C13      C      0.158340000000     0.699940000000     0.349970000000     0          
C13      C      0.158340000000     0.699940000000     0.849970000000     0          
C13      C      0.358340000000     0.033273333333     0.349970000000     0          
C13      C      0.358340000000     0.033273333333     0.849970000000     0          
C13      C      0.358340000000     0.366606666667     0.349970000000     0          
C13      C      0.358340000000     0.366606666667     0.849970000000     0          
C13      C      0.358340000000     0.699940000000     0.349970000000     0          
C13      C      0.358340000000     0.699940000000     0.849970000000     0          
C13      C      0.558340000000     0.033273333333     0.349970000000     0          
C13      C      0.558340000000     0.033273333333     0.849970000000     0          
C13      C      0.558340000000     0.366606666667     0.349970000000     0          
C13      C      0.558340000000     0.366606666667     0.849970000000     0          
C13      C      0.558340000000     0.699940000000     0.349970000000     0          
C13      C      0.558340000000     0.699940000000     0.849970000000     0          
C13      C      0.758340000000     0.033273333333     0.349970000000     0          
C13      C      0.758340000000     0.033273333333     0.849970000000     0          
C13      C      0.758340000000     0.366606666667     0.349970000000     0          
C13      C      0.758340000000     0.366606666667     0.849970000000     0          
C13      C      0.758340000000     0.699940000000     0.349970000000     0          
C13      C      0.758340000000     0.699940000000     0.849970000000     0          
C13      C      0.958340000000     0.033273333333     0.349970000000     0          
C13      C      0.958340000000     0.033273333333     0.849970000000     0          
C13      C      0.958340000000     0.366606666667     0.349970000000     0          
C13      C      0.958340000000     0.366606666667     0.849970000000     0          
C13      C      0.958340000000     0.699940000000     0.349970000000     0          
C13      C      0.958340000000     0.699940000000     0.849970000000     0          
C14      C      0.124080000000     0.118486666667     0.225105000000     0          
C14      C      0.124080000000     0.118486666667     0.725105000000     0          
C14      C      0.124080000000     0.451820000000     0.225105000000     0          
C14      C      0.124080000000     0.451820000000     0.725105000000     0          
C14      C      0.124080000000     0.785153333333     0.225105000000     0          
C14      C      0.124080000000     0.785153333333     0.725105000000     0          
C14      C      0.324080000000     0.118486666667     0.225105000000     0          
C14      C      0.324080000000     0.118486666667     0.725105000000     0          
C14      C      0.324080000000     0.451820000000     0.225105000000     0          
C14      C      0.324080000000     0.451820000000     0.725105000000     0          
C14      C      0.324080000000     0.785153333333     0.225105000000     0          
C14      C      0.324080000000     0.785153333333     0.725105000000     0          
C14      C      0.524080000000     0.118486666667     0.225105000000     0          
C14      C      0.524080000000     0.118486666667     0.725105000000     0          
C14      C      0.524080000000     0.451820000000     0.225105000000     0          
C14      C      0.524080000000     0.451820000000     0.725105000000     0          
C14      C      0.524080000000     0.785153333333     0.225105000000     0          
C14      C      0.524080000000     0.785153333333     0.725105000000     0          
C14      C      0.724080000000     0.118486666667     0.225105000000     0          
C14      C      0.724080000000     0.118486666667     0.725105000000     0          
C14      C      0.724080000000     0.451820000000     0.225105000000     0          
C14      C      0.724080000000     0.451820000000     0.725105000000     0          
C14      C      0.724080000000     0.785153333333     0.225105000000     0          
C14      C      0.724080000000     0.785153333333     0.725105000000     0          
C14      C      0.924080000000     0.118486666667     0.225105000000     0          
C14      C      0.924080000000     0.118486666667     0.725105000000     0          
C14      C      0.924080000000     0.451820000000     0.225105000000     0          
C14      C      0.924080000000     0.451820000000     0.725105000000     0          
C14      C      0.924080000000     0.785153333333     0.225105000000     0          
C14      C      0.924080000000     0.785153333333     0.725105000000     0          
C15      C      0.048280000000     0.165153333333     0.382555000000     0          
C15      C      0.048280000000     0.165153333333     0.882555000000     0          
C15      C      0.048280000000     0.498486666667     0.382555000000     0          
C15      C      0.048280000000     0.498486666667     0.882555000000     0          
C15      C      0.048280000000     0.831820000000     0.382555000000     0          
C15      C      0.048280000000     0.831820000000     0.882555000000     0          
C15      C      0.248280000000     0.165153333333     0.382555000000     0          
C15      C      0.248280000000     0.165153333333     0.882555000000     0          
C15      C      0.248280000000     0.498486666667     0.382555000000     0          
C15      C      0.248280000000     0.498486666667     0.882555000000     0          
C15      C      0.248280000000     0.831820000000     0.382555000000     0          
C15      C      0.248280000000     0.831820000000     0.882555000000     0          
C15      C      0.448280000000     0.165153333333     0.382555000000     0          
C15      C      0.448280000000     0.165153333333     0.882555000000     0          
C15      C      0.448280000000     0.498486666667     0.382555000000     0          
C15      C      0.448280000000     0.498486666667     0.882555000000     0          
C15      C      0.448280000000     0.831820000000     0.382555000000     0          
C15      C      0.448280000000     0.831820000000     0.882555000000     0          
C15      C      0.648280000000     0.165153333333     0.382555000000     0          
C15      C      0.648280000000     0.165153333333     0.882555000000     0          
C15      C      0.648280000000     0.498486666667     0.382555000000     0          
C15      C      0.648280000000     0.498486666667     0.882555000000     0          
C15      C      0.648280000000     0.831820000000     0.382555000000     0          
C15      C      0.648280000000     0.831820000000     0.882555000000     0          
C15      C      0.848280000000     0.165153333333     0.382555000000     0          
C15      C      0.848280000000     0.165153333333     0.882555000000     0          
C15      C      0.848280000000     0.498486666667     0.382555000000     0          
C15      C      0.848280000000     0.498486666667     0.882555000000     0          
C15      C      0.848280000000     0.831820000000     0.382555000000     0          
C15      C      0.848280000000     0.831820000000     0.882555000000     0          
C16      C      0.047860000000     0.074420000000     0.077535000000     0          
C16      C      0.047860000000     0.074420000000     0.577535000000     0          
C16      C      0.047860000000     0.407753333333     0.077535000000     0          
C16      C      0.047860000000     0.407753333333     0.577535000000     0          
C16      C      0.047860000000     0.741086666667     0.077535000000     0          
C16      C      0.047860000000     0.741086666667     0.577535000000     0          
C16      C      0.247860000000     0.074420000000     0.077535000000     0          
C16      C      0.247860000000     0.074420000000     0.577535000000     0          
C16      C      0.247860000000     0.407753333333     0.077535000000     0          
C16      C      0.247860000000     0.407753333333     0.577535000000     0          
C16      C      0.247860000000     0.741086666667     0.077535000000     0          
C16      C      0.247860000000     0.741086666667     0.577535000000     0          
C16      C      0.447860000000     0.074420000000     0.077535000000     0          
C16      C      0.447860000000     0.074420000000     0.577535000000     0          
C16      C      0.447860000000     0.407753333333     0.077535000000     0          
C16      C      0.447860000000     0.407753333333     0.577535000000     0          
C16      C      0.447860000000     0.741086666667     0.077535000000     0          
C16      C      0.447860000000     0.741086666667     0.577535000000     0          
C16      C      0.647860000000     0.074420000000     0.077535000000     0          
C16      C      0.647860000000     0.074420000000     0.577535000000     0          
C16      C      0.647860000000     0.407753333333     0.077535000000     0          
C16      C      0.647860000000     0.407753333333     0.577535000000     0          
C16      C      0.647860000000     0.741086666667     0.077535000000     0          
C16      C      0.647860000000     0.741086666667     0.577535000000     0          
C16      C      0.847860000000     0.074420000000     0.077535000000     0          
C16      C      0.847860000000     0.074420000000     0.577535000000     0          
C16      C      0.847860000000     0.407753333333     0.077535000000     0          
C16      C      0.847860000000     0.407753333333     0.577535000000     0          
C16      C      0.847860000000     0.741086666667     0.077535000000     0          
C16      C      0.847860000000     0.741086666667     0.577535000000     0          
C17      C      0.078160000000     0.048313333333     0.484320000000     0          
C17      C      0.078160000000     0.048313333333     0.984320000000     0          
C17      C      0.078160000000     0.381646666667     0.484320000000     0          
C17      C      0.078160000000     0.381646666667     0.984320000000     0          
C17      C      0.078160000000     0.714980000000     0.484320000000     0          
C17      C      0.078160000000     0.714980000000     0.984320000000     0          
C17      C      0.278160000000     0.048313333333     0.484320000000     0          
C17      C      0.278160000000     0.048313333333     0.984320000000     0          
C17      C      0.278160000000     0.381646666667     0.484320000000     0          
C17      C      0.278160000000     0.381646666667     0.984320000000     0          
C17      C      0.278160000000     0.714980000000     0.484320000000     0          
C17      C      0.278160000000     0.714980000000     0.984320000000     0          
C17      C      0.478160000000     0.048313333333     0.484320000000     0          
C17      C      0.478160000000     0.048313333333     0.984320000000     0          
C17      C      0.478160000000     0.381646666667     0.484320000000     0          
C17      C      0.478160000000     0.381646666667     0.984320000000     0          
C17      C      0.478160000000     0.714980000000     0.484320000000     0          
C17      C      0.478160000000     0.714980000000     0.984320000000     0          
C17      C      0.678160000000     0.048313333333     0.484320000000     0          
C17      C      0.678160000000     0.048313333333     0.984320000000     0          
C17      C      0.678160000000     0.381646666667     0.484320000000     0          
C17      C      0.678160000000     0.381646666667     0.984320000000     0          
C17      C      0.678160000000     0.714980000000     0.484320000000     0          
C17      C      0.678160000000     0.714980000000     0.984320000000     0          
C17      C      0.878160000000     0.048313333333     0.484320000000     0          
C17      C      0.878160000000     0.048313333333     0.984320000000     0          
C17      C      0.878160000000     0.381646666667     0.484320000000     0          
C17      C      0.878160000000     0.381646666667     0.984320000000     0          
C17      C      0.878160000000     0.714980000000     0.484320000000     0          
C17      C      0.878160000000     0.714980000000     0.984320000000     0          
C18      C      0.077920000000     0.072980000000     0.428905000000     0          
C18      C      0.077920000000     0.072980000000     0.928905000000     0          
C18      C      0.077920000000     0.406313333333     0.428905000000     0          
C18      C      0.077920000000     0.406313333333     0.928905000000     0          
C18      C      0.077920000000     0.739646666667     0.428905000000     0          
C18      C      0.077920000000     0.739646666667     0.928905000000     0          
C18      C      0.277920000000     0.072980000000     0.428905000000     0          
C18      C      0.277920000000     0.072980000000     0.928905000000     0          
C18      C      0.277920000000     0.406313333333     0.428905000000     0          
C18      C      0.277920000000     0.406313333333     0.928905000000     0          
C18      C      0.277920000000     0.739646666667     0.428905000000     0          
C18      C      0.277920000000     0.739646666667     0.928905000000     0          
C18      C      0.477920000000     0.072980000000     0.428905000000     0          
C18      C      0.477920000000     0.072980000000     0.928905000000     0          
C18      C      0.477920000000     0.406313333333     0.428905000000     0          
C18      C      0.477920000000     0.406313333333     0.928905000000     0          
C18      C      0.477920000000     0.739646666667     0.428905000000     0          
C18      C      0.477920000000     0.739646666667     0.928905000000     0          
C18      C      0.677920000000     0.072980000000     0.428905000000     0          
C18      C      0.677920000000     0.072980000000     0.928905000000     0          
C18      C      0.677920000000     0.406313333333     0.428905000000     0          
C18      C      0.677920000000     0.406313333333     0.928905000000     0          
C18      C      0.677920000000     0.739646666667     0.428905000000     0          
C18      C      0.677920000000     0.739646666667     0.928905000000     0          
C18      C      0.877920000000     0.072980000000     0.428905000000     0          
C18      C      0.877920000000     0.072980000000     0.928905000000     0          
C18      C      0.877920000000     0.406313333333     0.428905000000     0          
C18      C      0.877920000000     0.406313333333     0.928905000000     0          
C18      C      0.877920000000     0.739646666667     0.428905000000     0          
C18      C      0.877920000000     0.739646666667     0.928905000000     0          
C19      C      0.111340000000     0.102346666667     0.430020000000     0          
C19      C      0.111340000000     0.102346666667     0.930020000000     0          
C19      C      0.111340000000     0.435680000000     0.430020000000     0          
C19      C      0.111340000000     0.435680000000     0.930020000000     0          
C19      C      0.111340000000     0.769013333333     0.430020000000     0          
C19      C      0.111340000000     0.769013333333     0.930020000000     0          
C19      C      0.311340000000     0.102346666667     0.430020000000     0          
C19      C      0.311340000000     0.102346666667     0.930020000000     0          
C19      C      0.311340000000     0.435680000000     0.430020000000     0          
C19      C      0.311340000000     0.435680000000     0.930020000000     0          
C19      C      0.311340000000     0.769013333333     0.430020000000     0          
C19      C      0.311340000000     0.769013333333     0.930020000000     0          
C19      C      0.511340000000     0.102346666667     0.430020000000     0          
C19      C      0.511340000000     0.102346666667     0.930020000000     0          
C19      C      0.511340000000     0.435680000000     0.430020000000     0          
C19      C      0.511340000000     0.435680000000     0.930020000000     0          
C19      C      0.511340000000     0.769013333333     0.430020000000     0          
C19      C      0.511340000000     0.769013333333     0.930020000000     0          
C19      C      0.711340000000     0.102346666667     0.430020000000     0          
C19      C      0.711340000000     0.102346666667     0.930020000000     0          
C19      C      0.711340000000     0.435680000000     0.430020000000     0          
C19      C      0.711340000000     0.435680000000     0.930020000000     0          
C19      C      0.711340000000     0.769013333333     0.430020000000     0          
C19      C      0.711340000000     0.769013333333     0.930020000000     0          
C19      C      0.911340000000     0.102346666667     0.430020000000     0          
C19      C      0.911340000000     0.102346666667     0.930020000000     0          
C19      C      0.911340000000     0.435680000000     0.430020000000     0          
C19      C      0.911340000000     0.435680000000     0.930020000000     0          
C19      C      0.911340000000     0.769013333333     0.430020000000     0          
C19      C      0.911340000000     0.769013333333     0.930020000000     0          
C20      C      0.102280000000     0.076583333333     0.033860000000     0          
C20      C      0.102280000000     0.076583333333     0.533860000000     0          
C20      C      0.102280000000     0.409916666667     0.033860000000     0          
C20      C      0.102280000000     0.409916666667     0.533860000000     0          
C20      C      0.102280000000     0.743250000000     0.033860000000     0          
C20      C      0.102280000000     0.743250000000     0.533860000000     0          
C20      C      0.302280000000     0.076583333333     0.033860000000     0          
C20      C      0.302280000000     0.076583333333     0.533860000000     0          
C20      C      0.302280000000     0.409916666667     0.033860000000     0          
C20      C      0.302280000000     0.409916666667     0.533860000000     0          
C20      C      0.302280000000     0.743250000000     0.033860000000     0          
C20      C      0.302280000000     0.743250000000     0.533860000000     0          
C20      C      0.502280000000     0.076583333333     0.033860000000     0          
C20      C      0.502280000000     0.076583333333     0.533860000000     0          
C20      C      0.502280000000     0.409916666667     0.033860000000     0          
C20      C      0.502280000000     0.409916666667     0.533860000000     0          
C20      C      0.502280000000     0.743250000000     0.033860000000     0          
C20      C      0.502280000000     0.743250000000     0.533860000000     0          
C20      C      0.702280000000     0.076583333333     0.033860000000     0          
C20      C      0.702280000000     0.076583333333     0.533860000000     0          
C20      C      0.702280000000     0.409916666667     0.033860000000     0          
C20      C      0.702280000000     0.409916666667     0.533860000000     0          
C20      C      0.702280000000     0.743250000000     0.033860000000     0          
C20      C      0.702280000000     0.743250000000     0.533860000000     0          
C20      C      0.902280000000     0.076583333333     0.033860000000     0          
C20      C      0.902280000000     0.076583333333     0.533860000000     0          
C20      C      0.902280000000     0.409916666667     0.033860000000     0          
C20      C      0.902280000000     0.409916666667     0.533860000000     0          
C20      C      0.902280000000     0.743250000000     0.033860000000     0          
C20      C      0.902280000000     0.743250000000     0.533860000000     0          
C21      C      0.058540000000     0.066240000000     0.044655000000     0          
C21      C      0.058540000000     0.066240000000     0.544655000000     0          
C21      C      0.058540000000     0.399573333333     0.044655000000     0          
C21      C      0.058540000000     0.399573333333     0.544655000000     0          
C21      C      0.058540000000     0.732906666667     0.044655000000     0          
C21      C      0.058540000000     0.732906666667     0.544655000000     0          
C21      C      0.258540000000     0.066240000000     0.044655000000     0          
C21      C      0.258540000000     0.066240000000     0.544655000000     0          
C21      C      0.258540000000     0.399573333333     0.044655000000     0          
C21      C      0.258540000000     0.399573333333     0.544655000000     0          
C21      C      0.258540000000     0.732906666667     0.044655000000     0          
C21      C      0.258540000000     0.732906666667     0.544655000000     0          
C21      C      0.458540000000     0.066240000000     0.044655000000     0          
C21      C      0.458540000000     0.066240000000     0.544655000000     0          
C21      C      0.458540000000     0.399573333333     0.044655000000     0          
C21      C      0.458540000000     0.399573333333     0.544655000000     0          
C21      C      0.458540000000     0.732906666667     0.044655000000     0          
C21      C      0.458540000000     0.732906666667     0.544655000000     0          
C21      C      0.658540000000     0.066240000000     0.044655000000     0          
C21      C      0.658540000000     0.066240000000     0.544655000000     0          
C21      C      0.658540000000     0.399573333333     0.044655000000     0          
C21      C      0.658540000000     0.399573333333     0.544655000000     0          
C21      C      0.658540000000     0.732906666667     0.044655000000     0          
C21      C      0.658540000000     0.732906666667     0.544655000000     0          
C21      C      0.858540000000     0.066240000000     0.044655000000     0          
C21      C      0.858540000000     0.066240000000     0.544655000000     0          
C21      C      0.858540000000     0.399573333333     0.044655000000     0          
C21      C      0.858540000000     0.399573333333     0.544655000000     0          
C21      C      0.858540000000     0.732906666667     0.044655000000     0          
C21      C      0.858540000000     0.732906666667     0.544655000000     0          
C22      C      0.033740000000     0.038853333333     0.494600000000     0          
C22      C      0.033740000000     0.038853333333     0.994600000000     0          
C22      C      0.033740000000     0.372186666667     0.494600000000     0          
C22      C      0.033740000000     0.372186666667     0.994600000000     0          
C22      C      0.033740000000     0.705520000000     0.494600000000     0          
C22      C      0.033740000000     0.705520000000     0.994600000000     0          
C22      C      0.233740000000     0.038853333333     0.494600000000     0          
C22      C      0.233740000000     0.038853333333     0.994600000000     0          
C22      C      0.233740000000     0.372186666667     0.494600000000     0          
C22      C      0.233740000000     0.372186666667     0.994600000000     0          
C22      C      0.233740000000     0.705520000000     0.494600000000     0          
C22      C      0.233740000000     0.705520000000     0.994600000000     0          
C22      C      0.433740000000     0.038853333333     0.494600000000     0          
C22      C      0.433740000000     0.038853333333     0.994600000000     0          
C22      C      0.433740000000     0.372186666667     0.494600000000     0          
C22      C      0.433740000000     0.372186666667     0.994600000000     0          
C22      C      0.433740000000     0.705520000000     0.494600000000     0          
C22      C      0.433740000000     0.705520000000     0.994600000000     0          
C22      C      0.633740000000     0.038853333333     0.494600000000     0          
C22      C      0.633740000000     0.038853333333     0.994600000000     0          
C22      C      0.633740000000     0.372186666667     0.494600000000     0          
C22      C      0.633740000000     0.372186666667     0.994600000000     0          
C22      C      0.633740000000     0.705520000000     0.494600000000     0          
C22      C      0.633740000000     0.705520000000     0.994600000000     0          
C22      C      0.833740000000     0.038853333333     0.494600000000     0          
C22      C      0.833740000000     0.038853333333     0.994600000000     0          
C22      C      0.833740000000     0.372186666667     0.494600000000     0          
C22      C      0.833740000000     0.372186666667     0.994600000000     0          
C22      C      0.833740000000     0.705520000000     0.494600000000     0          
C22      C      0.833740000000     0.705520000000     0.994600000000     0          
C23      C      0.034560000000     0.073503333333     0.414050000000     0          
C23      C      0.034560000000     0.073503333333     0.914050000000     0          
C23      C      0.034560000000     0.406836666667     0.414050000000     0          
C23      C      0.034560000000     0.406836666667     0.914050000000     0          
C23      C      0.034560000000     0.740170000000     0.414050000000     0          
C23      C      0.034560000000     0.740170000000     0.914050000000     0          
C23      C      0.234560000000     0.073503333333     0.414050000000     0          
C23      C      0.234560000000     0.073503333333     0.914050000000     0          
C23      C      0.234560000000     0.406836666667     0.414050000000     0          
C23      C      0.234560000000     0.406836666667     0.914050000000     0          
C23      C      0.234560000000     0.740170000000     0.414050000000     0          
C23      C      0.234560000000     0.740170000000     0.914050000000     0          
C23      C      0.434560000000     0.073503333333     0.414050000000     0          
C23      C      0.434560000000     0.073503333333     0.914050000000     0          
C23      C      0.434560000000     0.406836666667     0.414050000000     0          
C23      C      0.434560000000     0.406836666667     0.914050000000     0          
C23      C      0.434560000000     0.740170000000     0.414050000000     0          
C23      C      0.434560000000     0.740170000000     0.914050000000     0          
C23      C      0.634560000000     0.073503333333     0.414050000000     0          
C23      C      0.634560000000     0.073503333333     0.914050000000     0          
C23      C      0.634560000000     0.406836666667     0.414050000000     0          
C23      C      0.634560000000     0.406836666667     0.914050000000     0          
C23      C      0.634560000000     0.740170000000     0.414050000000     0          
C23      C      0.634560000000     0.740170000000     0.914050000000     0          
C23      C      0.834560000000     0.073503333333     0.414050000000     0          
C23      C      0.834560000000     0.073503333333     0.914050000000     0          
C23      C      0.834560000000     0.406836666667     0.414050000000     0          
C23      C      0.834560000000     0.406836666667     0.914050000000     0          
C23      C      0.834560000000     0.740170000000     0.414050000000     0          
C23      C      0.834560000000     0.740170000000     0.914050000000     0          
C24      C      0.024880000000     0.104253333333     0.399875000000     0          
C24      C      0.024880000000     0.104253333333     0.899875000000     0          
C24      C      0.024880000000     0.437586666667     0.399875000000     0          
C24      C      0.024880000000     0.437586666667     0.899875000000     0          
C24      C      0.024880000000     0.770920000000     0.399875000000     0          
C24      C      0.024880000000     0.770920000000     0.899875000000     0          
C24      C      0.224880000000     0.104253333333     0.399875000000     0          
C24      C      0.224880000000     0.104253333333     0.899875000000     0          
C24      C      0.224880000000     0.437586666667     0.399875000000     0          
C24      C      0.224880000000     0.437586666667     0.899875000000     0          
C24      C      0.224880000000     0.770920000000     0.399875000000     0          
C24      C      0.224880000000     0.770920000000     0.899875000000     0          
C24      C      0.424880000000     0.104253333333     0.399875000000     0          
C24      C      0.424880000000     0.104253333333     0.899875000000     0          
C24      C      0.424880000000     0.437586666667     0.399875000000     0          
C24      C      0.424880000000     0.437586666667     0.899875000000     0          
C24      C      0.424880000000     0.770920000000     0.399875000000     0          
C24      C      0.424880000000     0.770920000000     0.899875000000     0          
C24      C      0.624880000000     0.104253333333     0.399875000000     0          
C24      C      0.624880000000     0.104253333333     0.899875000000     0          
C24      C      0.624880000000     0.437586666667     0.399875000000     0          
C24      C      0.624880000000     0.437586666667     0.899875000000     0          
C24      C      0.624880000000     0.770920000000     0.399875000000     0          
C24      C      0.624880000000     0.770920000000     0.899875000000     0          
C24      C      0.824880000000     0.104253333333     0.399875000000     0          
C24      C      0.824880000000     0.104253333333     0.899875000000     0          
C24      C      0.824880000000     0.437586666667     0.399875000000     0          
C24      C      0.824880000000     0.437586666667     0.899875000000     0          
C24      C      0.824880000000     0.770920000000     0.399875000000     0          
C24      C      0.824880000000     0.770920000000     0.899875000000     0          
C25      C      0.101420000000     0.132460000000     0.415200000000     0          
C25      C      0.101420000000     0.132460000000     0.915200000000     0          
C25      C      0.101420000000     0.465793333333     0.415200000000     0          
C25      C      0.101420000000     0.465793333333     0.915200000000     0          
C25      C      0.101420000000     0.799126666667     0.415200000000     0          
C25      C      0.101420000000     0.799126666667     0.915200000000     0          
C25      C      0.301420000000     0.132460000000     0.415200000000     0          
C25      C      0.301420000000     0.132460000000     0.915200000000     0          
C25      C      0.301420000000     0.465793333333     0.415200000000     0          
C25      C      0.301420000000     0.465793333333     0.915200000000     0          
C25      C      0.301420000000     0.799126666667     0.415200000000     0          
C25      C      0.301420000000     0.799126666667     0.915200000000     0          
C25      C      0.501420000000     0.132460000000     0.415200000000     0          
C25      C      0.501420000000     0.132460000000     0.915200000000     0          
C25      C      0.501420000000     0.465793333333     0.415200000000     0          
C25      C      0.501420000000     0.465793333333     0.915200000000     0          
C25      C      0.501420000000     0.799126666667     0.415200000000     0          
C25      C      0.501420000000     0.799126666667     0.915200000000     0          
C25      C      0.701420000000     0.132460000000     0.415200000000     0          
C25      C      0.701420000000     0.132460000000     0.915200000000     0          
C25      C      0.701420000000     0.465793333333     0.415200000000     0          
C25      C      0.701420000000     0.465793333333     0.915200000000     0          
C25      C      0.701420000000     0.799126666667     0.415200000000     0          
C25      C      0.701420000000     0.799126666667     0.915200000000     0          
C25      C      0.901420000000     0.132460000000     0.415200000000     0          
C25      C      0.901420000000     0.132460000000     0.915200000000     0          
C25      C      0.901420000000     0.465793333333     0.415200000000     0          
C25      C      0.901420000000     0.465793333333     0.915200000000     0          
C25      C      0.901420000000     0.799126666667     0.415200000000     0          
C25      C      0.901420000000     0.799126666667     0.915200000000     0          
C26      C      0.112200000000     0.067816666667     0.003475000000     0          
C26      C      0.112200000000     0.067816666667     0.503475000000     0          
C26      C      0.112200000000     0.401150000000     0.003475000000     0          
C26      C      0.112200000000     0.401150000000     0.503475000000     0          
C26      C      0.112200000000     0.734483333333     0.003475000000     0          
C26      C      0.112200000000     0.734483333333     0.503475000000     0          
C26      C      0.312200000000     0.067816666667     0.003475000000     0          
C26      C      0.312200000000     0.067816666667     0.503475000000     0          
C26      C      0.312200000000     0.401150000000     0.003475000000     0          
C26      C      0.312200000000     0.401150000000     0.503475000000     0          
C26      C      0.312200000000     0.734483333333     0.003475000000     0          
C26      C      0.312200000000     0.734483333333     0.503475000000     0          
C26      C      0.512200000000     0.067816666667     0.003475000000     0          
C26      C      0.512200000000     0.067816666667     0.503475000000     0          
C26      C      0.512200000000     0.401150000000     0.003475000000     0          
C26      C      0.512200000000     0.401150000000     0.503475000000     0          
C26      C      0.512200000000     0.734483333333     0.003475000000     0          
C26      C      0.512200000000     0.734483333333     0.503475000000     0          
C26      C      0.712200000000     0.067816666667     0.003475000000     0          
C26      C      0.712200000000     0.067816666667     0.503475000000     0          
C26      C      0.712200000000     0.401150000000     0.003475000000     0          
C26      C      0.712200000000     0.401150000000     0.503475000000     0          
C26      C      0.712200000000     0.734483333333     0.003475000000     0          
C26      C      0.712200000000     0.734483333333     0.503475000000     0          
C26      C      0.912200000000     0.067816666667     0.003475000000     0          
C26      C      0.912200000000     0.067816666667     0.503475000000     0          
C26      C      0.912200000000     0.401150000000     0.003475000000     0          
C26      C      0.912200000000     0.401150000000     0.503475000000     0          
C26      C      0.912200000000     0.734483333333     0.003475000000     0          
C26      C      0.912200000000     0.734483333333     0.503475000000     0          
C27      C      0.058340000000     0.133393333333     0.400030000000     0          
C27      C      0.058340000000     0.133393333333     0.900030000000     0          
C27      C      0.058340000000     0.466726666667     0.400030000000     0          
C27      C      0.058340000000     0.466726666667     0.900030000000     0          
C27      C      0.058340000000     0.800060000000     0.400030000000     0          
C27      C      0.058340000000     0.800060000000     0.900030000000     0          
C27      C      0.258340000000     0.133393333333     0.400030000000     0          
C27      C      0.258340000000     0.133393333333     0.900030000000     0          
C27      C      0.258340000000     0.466726666667     0.400030000000     0          
C27      C      0.258340000000     0.466726666667     0.900030000000     0          
C27      C      0.258340000000     0.800060000000     0.400030000000     0          
C27      C      0.258340000000     0.800060000000     0.900030000000     0          
C27      C      0.458340000000     0.133393333333     0.400030000000     0          
C27      C      0.458340000000     0.133393333333     0.900030000000     0          
C27      C      0.458340000000     0.466726666667     0.400030000000     0          
C27      C      0.458340000000     0.466726666667     0.900030000000     0          
C27      C      0.458340000000     0.800060000000     0.400030000000     0          
C27      C      0.458340000000     0.800060000000     0.900030000000     0          
C27      C      0.658340000000     0.133393333333     0.400030000000     0          
C27      C      0.658340000000     0.133393333333     0.900030000000     0          
C27      C      0.658340000000     0.466726666667     0.400030000000     0          
C27      C      0.658340000000     0.466726666667     0.900030000000     0          
C27      C      0.658340000000     0.800060000000     0.400030000000     0          
C27      C      0.658340000000     0.800060000000     0.900030000000     0          
C27      C      0.858340000000     0.133393333333     0.400030000000     0          
C27      C      0.858340000000     0.133393333333     0.900030000000     0          
C27      C      0.858340000000     0.466726666667     0.400030000000     0          
C27      C      0.858340000000     0.466726666667     0.900030000000     0          
C27      C      0.858340000000     0.800060000000     0.400030000000     0          
C27      C      0.858340000000     0.800060000000     0.900030000000     0          
C28      C      0.024080000000     0.048180000000     0.024895000000     0          
C28      C      0.024080000000     0.048180000000     0.524895000000     0          
C28      C      0.024080000000     0.381513333333     0.024895000000     0          
C28      C      0.024080000000     0.381513333333     0.524895000000     0          
C28      C      0.024080000000     0.714846666667     0.024895000000     0          
C28      C      0.024080000000     0.714846666667     0.524895000000     0          
C28      C      0.224080000000     0.048180000000     0.024895000000     0          
C28      C      0.224080000000     0.048180000000     0.524895000000     0          
C28      C      0.224080000000     0.381513333333     0.024895000000     0          
C28      C      0.224080000000     0.381513333333     0.524895000000     0          
C28      C      0.224080000000     0.714846666667     0.024895000000     0          
C28      C      0.224080000000     0.714846666667     0.524895000000     0          
C28      C      0.424080000000     0.048180000000     0.024895000000     0          
C28      C      0.424080000000     0.048180000000     0.524895000000     0          
C28      C      0.424080000000     0.381513333333     0.024895000000     0          
C28      C      0.424080000000     0.381513333333     0.524895000000     0          
C28      C      0.424080000000     0.714846666667     0.024895000000     0          
C28      C      0.424080000000     0.714846666667     0.524895000000     0          
C28      C      0.624080000000     0.048180000000     0.024895000000     0          
C28      C      0.624080000000     0.048180000000     0.524895000000     0          
C28      C      0.624080000000     0.381513333333     0.024895000000     0          
C28      C      0.624080000000     0.381513333333     0.524895000000     0          
C28      C      0.624080000000     0.714846666667     0.024895000000     0          
C28      C      0.624080000000     0.714846666667     0.524895000000     0          
C28      C      0.824080000000     0.048180000000     0.024895000000     0          
C28      C      0.824080000000     0.048180000000     0.524895000000     0          
C28      C      0.824080000000     0.381513333333     0.024895000000     0          
C28      C      0.824080000000     0.381513333333     0.524895000000     0          
C28      C      0.824080000000     0.714846666667     0.024895000000     0          
C28      C      0.824080000000     0.714846666667     0.524895000000     0          
C29      C      0.051720000000     0.331820000000     0.132555000000     0          
C29      C      0.051720000000     0.331820000000     0.632555000000     0          
C29      C      0.051720000000     0.665153333333     0.132555000000     0          
C29      C      0.051720000000     0.665153333333     0.632555000000     0          
C29      C      0.051720000000     0.998486666667     0.132555000000     0          
C29      C      0.051720000000     0.998486666667     0.632555000000     0          
C29      C      0.251720000000     0.331820000000     0.132555000000     0          
C29      C      0.251720000000     0.331820000000     0.632555000000     0          
C29      C      0.251720000000     0.665153333333     0.132555000000     0          
C29      C      0.251720000000     0.665153333333     0.632555000000     0          
C29      C      0.251720000000     0.998486666667     0.132555000000     0          
C29      C      0.251720000000     0.998486666667     0.632555000000     0          
C29      C      0.451720000000     0.331820000000     0.132555000000     0          
C29      C      0.451720000000     0.331820000000     0.632555000000     0          
C29      C      0.451720000000     0.665153333333     0.132555000000     0          
C29      C      0.451720000000     0.665153333333     0.632555000000     0          
C29      C      0.451720000000     0.998486666667     0.132555000000     0          
C29      C      0.451720000000     0.998486666667     0.632555000000     0          
C29      C      0.651720000000     0.331820000000     0.132555000000     0          
C29      C      0.651720000000     0.331820000000     0.632555000000     0          
C29      C      0.651720000000     0.665153333333     0.132555000000     0          
C29      C      0.651720000000     0.665153333333     0.632555000000     0          
C29      C      0.651720000000     0.998486666667     0.132555000000     0          
C29      C      0.651720000000     0.998486666667     0.632555000000     0          
C29      C      0.851720000000     0.331820000000     0.132555000000     0          
C29      C      0.851720000000     0.331820000000     0.632555000000     0          
C29      C      0.851720000000     0.665153333333     0.132555000000     0          
C29      C      0.851720000000     0.665153333333     0.632555000000     0          
C29      C      0.851720000000     0.998486666667     0.132555000000     0          
C29      C      0.851720000000     0.998486666667     0.632555000000     0          
C30      C      0.052140000000     0.241086666667     0.327535000000     0          
C30      C      0.052140000000     0.241086666667     0.827535000000     0          
C30      C      0.052140000000     0.574420000000     0.327535000000     0          
C30      C      0.052140000000     0.574420000000     0.827535000000     0          
C30      C      0.052140000000     0.907753333333     0.327535000000     0          
C30      C      0.052140000000     0.907753333333     0.827535000000     0          
C30      C      0.252140000000     0.241086666667     0.327535000000     0          
C30      C      0.252140000000     0.241086666667     0.827535000000     0          
C30      C      0.252140000000     0.574420000000     0.327535000000     0          
C30      C      0.252140000000     0.574420000000     0.827535000000     0          
C30      C      0.252140000000     0.907753333333     0.327535000000     0          
C30      C      0.252140000000     0.907753333333     0.827535000000     0          
C30      C      0.452140000000     0.241086666667     0.327535000000     0          
C30      C      0.452140000000     0.241086666667     0.827535000000     0          
C30      C      0.452140000000     0.574420000000     0.327535000000     0          
C30      C      0.452140000000     0.574420000000     0.827535000000     0          
C30      C      0.452140000000     0.907753333333     0.327535000000     0          
C30      C      0.452140000000     0.907753333333     0.827535000000     0          
C30      C      0.652140000000     0.241086666667     0.327535000000     0          
C30      C      0.652140000000     0.241086666667     0.827535000000     0          
C30      C      0.652140000000     0.574420000000     0.327535000000     0          
C30      C      0.652140000000     0.574420000000     0.827535000000     0          
C30      C      0.652140000000     0.907753333333     0.327535000000     0          
C30      C      0.652140000000     0.907753333333     0.827535000000     0          
C30      C      0.852140000000     0.241086666667     0.327535000000     0          
C30      C      0.852140000000     0.241086666667     0.827535000000     0          
C30      C      0.852140000000     0.574420000000     0.327535000000     0          
C30      C      0.852140000000     0.574420000000     0.827535000000     0          
C30      C      0.852140000000     0.907753333333     0.327535000000     0          
C30      C      0.852140000000     0.907753333333     0.827535000000     0          
C31      C      0.021840000000     0.214980000000     0.234320000000     0          
C31      C      0.021840000000     0.214980000000     0.734320000000     0          
C31      C      0.021840000000     0.548313333333     0.234320000000     0          
C31      C      0.021840000000     0.548313333333     0.734320000000     0          
C31      C      0.021840000000     0.881646666667     0.234320000000     0          
C31      C      0.021840000000     0.881646666667     0.734320000000     0          
C31      C      0.221840000000     0.214980000000     0.234320000000     0          
C31      C      0.221840000000     0.214980000000     0.734320000000     0          
C31      C      0.221840000000     0.548313333333     0.234320000000     0          
C31      C      0.221840000000     0.548313333333     0.734320000000     0          
C31      C      0.221840000000     0.881646666667     0.234320000000     0          
C31      C      0.221840000000     0.881646666667     0.734320000000     0          
C31      C      0.421840000000     0.214980000000     0.234320000000     0          
C31      C      0.421840000000     0.214980000000     0.734320000000     0          
C31      C      0.421840000000     0.548313333333     0.234320000000     0          
C31      C      0.421840000000     0.548313333333     0.734320000000     0          
C31      C      0.421840000000     0.881646666667     0.234320000000     0          
C31      C      0.421840000000     0.881646666667     0.734320000000     0          
C31      C      0.621840000000     0.214980000000     0.234320000000     0          
C31      C      0.621840000000     0.214980000000     0.734320000000     0          
C31      C      0.621840000000     0.548313333333     0.234320000000     0          
C31      C      0.621840000000     0.548313333333     0.734320000000     0          
C31      C      0.621840000000     0.881646666667     0.234320000000     0          
C31      C      0.621840000000     0.881646666667     0.734320000000     0          
C31      C      0.821840000000     0.214980000000     0.234320000000     0          
C31      C      0.821840000000     0.214980000000     0.734320000000     0          
C31      C      0.821840000000     0.548313333333     0.234320000000     0          
C31      C      0.821840000000     0.548313333333     0.734320000000     0          
C31      C      0.821840000000     0.881646666667     0.234320000000     0          
C31      C      0.821840000000     0.881646666667     0.734320000000     0          
C32      C      0.022080000000     0.239646666667     0.178905000000     0          
C32      C      0.022080000000     0.239646666667     0.678905000000     0          
C32      C      0.022080000000     0.572980000000     0.178905000000     0          
C32      C      0.022080000000     0.572980000000     0.678905000000     0          
C32      C      0.022080000000     0.906313333333     0.178905000000     0          
C32      C      0.022080000000     0.906313333333     0.678905000000     0          
C32      C      0.222080000000     0.239646666667     0.178905000000     0          
C32      C      0.222080000000     0.239646666667     0.678905000000     0          
C32      C      0.222080000000     0.572980000000     0.178905000000     0          
C32      C      0.222080000000     0.572980000000     0.678905000000     0          
C32      C      0.222080000000     0.906313333333     0.178905000000     0          
C32      C      0.222080000000     0.906313333333     0.678905000000     0          
C32      C      0.422080000000     0.239646666667     0.178905000000     0          
C32      C      0.422080000000     0.239646666667     0.678905000000     0          
C32      C      0.422080000000     0.572980000000     0.178905000000     0          
C32      C      0.422080000000     0.572980000000     0.678905000000     0          
C32      C      0.422080000000     0.906313333333     0.178905000000     0          
C32      C      0.422080000000     0.906313333333     0.678905000000     0          
C32      C      0.622080000000     0.239646666667     0.178905000000     0          
C32      C      0.622080000000     0.239646666667     0.678905000000     0          
C32      C      0.622080000000     0.572980000000     0.178905000000     0          
C32      C      0.622080000000     0.572980000000     0.678905000000     0          
C32      C      0.622080000000     0.906313333333     0.178905000000     0          
C32      C      0.622080000000     0.906313333333     0.678905000000     0          
C32      C      0.822080000000     0.239646666667     0.178905000000     0          
C32      C      0.822080000000     0.239646666667     0.678905000000     0          
C32      C      0.822080000000     0.572980000000     0.178905000000     0          
C32      C      0.822080000000     0.572980000000     0.678905000000     0          
C32      C      0.822080000000     0.906313333333     0.178905000000     0          
C32      C      0.822080000000     0.906313333333     0.678905000000     0          
C33      C      0.188660000000     0.269013333333     0.180020000000     0          
C33      C      0.188660000000     0.269013333333     0.680020000000     0          
C33      C      0.188660000000     0.602346666667     0.180020000000     0          
C33      C      0.188660000000     0.602346666667     0.680020000000     0          
C33      C      0.188660000000     0.935680000000     0.180020000000     0          
C33      C      0.188660000000     0.935680000000     0.680020000000     0          
C33      C      0.388660000000     0.269013333333     0.180020000000     0          
C33      C      0.388660000000     0.269013333333     0.680020000000     0          
C33      C      0.388660000000     0.602346666667     0.180020000000     0          
C33      C      0.388660000000     0.602346666667     0.680020000000     0          
C33      C      0.388660000000     0.935680000000     0.180020000000     0          
C33      C      0.388660000000     0.935680000000     0.680020000000     0          
C33      C      0.588660000000     0.269013333333     0.180020000000     0          
C33      C      0.588660000000     0.269013333333     0.680020000000     0          
C33      C      0.588660000000     0.602346666667     0.180020000000     0          
C33      C      0.588660000000     0.602346666667     0.680020000000     0          
C33      C      0.588660000000     0.935680000000     0.180020000000     0          
C33      C      0.588660000000     0.935680000000     0.680020000000     0          
C33      C      0.788660000000     0.269013333333     0.180020000000     0          
C33      C      0.788660000000     0.269013333333     0.680020000000     0          
C33      C      0.788660000000     0.602346666667     0.180020000000     0          
C33      C      0.788660000000     0.602346666667     0.680020000000     0          
C33      C      0.788660000000     0.935680000000     0.180020000000     0          
C33      C      0.788660000000     0.935680000000     0.680020000000     0          
C33      C      0.988660000000     0.269013333333     0.180020000000     0          
C33      C      0.988660000000     0.269013333333     0.680020000000     0          
C33      C      0.988660000000     0.602346666667     0.180020000000     0          
C33      C      0.988660000000     0.602346666667     0.680020000000     0          
C33      C      0.988660000000     0.935680000000     0.180020000000     0          
C33      C      0.988660000000     0.935680000000     0.680020000000     0          
C34      C      0.197720000000     0.243250000000     0.283860000000     0          
C34      C      0.197720000000     0.243250000000     0.783860000000     0          
C34      C      0.197720000000     0.576583333333     0.283860000000     0          
C34      C      0.197720000000     0.576583333333     0.783860000000     0          
C34      C      0.197720000000     0.909916666667     0.283860000000     0          
C34      C      0.197720000000     0.909916666667     0.783860000000     0          
C34      C      0.397720000000     0.243250000000     0.283860000000     0          
C34      C      0.397720000000     0.243250000000     0.783860000000     0          
C34      C      0.397720000000     0.576583333333     0.283860000000     0          
C34      C      0.397720000000     0.576583333333     0.783860000000     0          
C34      C      0.397720000000     0.909916666667     0.283860000000     0          
C34      C      0.397720000000     0.909916666667     0.783860000000     0          
C34      C      0.597720000000     0.243250000000     0.283860000000     0          
C34      C      0.597720000000     0.243250000000     0.783860000000     0          
C34      C      0.597720000000     0.576583333333     0.283860000000     0          
C34      C      0.597720000000     0.576583333333     0.783860000000     0          
C34      C      0.597720000000     0.909916666667     0.283860000000     0          
C34      C      0.597720000000     0.909916666667     0.783860000000     0          
C34      C      0.797720000000     0.243250000000     0.283860000000     0          
C34      C      0.797720000000     0.243250000000     0.783860000000     0          
C34      C      0.797720000000     0.576583333333     0.283860000000     0          
C34      C      0.797720000000     0.576583333333     0.783860000000     0          
C34      C      0.797720000000     0.909916666667     0.283860000000     0          
C34      C      0.797720000000     0.909916666667     0.783860000000     0          
C34      C      0.997720000000     0.243250000000     0.283860000000     0          
C34      C      0.997720000000     0.243250000000     0.783860000000     0          
C34      C      0.997720000000     0.576583333333     0.283860000000     0          
C34      C      0.997720000000     0.576583333333     0.783860000000     0          
C34      C      0.997720000000     0.909916666667     0.283860000000     0          
C34      C      0.997720000000     0.909916666667     0.783860000000     0          
C35      C      0.041460000000     0.232906666667     0.294655000000     0          
C35      C      0.041460000000     0.232906666667     0.794655000000     0          
C35      C      0.041460000000     0.566240000000     0.294655000000     0          
C35      C      0.041460000000     0.566240000000     0.794655000000     0          
C35      C      0.041460000000     0.899573333333     0.294655000000     0          
C35      C      0.041460000000     0.899573333333     0.794655000000     0          
C35      C      0.241460000000     0.232906666667     0.294655000000     0          
C35      C      0.241460000000     0.232906666667     0.794655000000     0          
C35      C      0.241460000000     0.566240000000     0.294655000000     0          
C35      C      0.241460000000     0.566240000000     0.794655000000     0          
C35      C      0.241460000000     0.899573333333     0.294655000000     0          
C35      C      0.241460000000     0.899573333333     0.794655000000     0          
C35      C      0.441460000000     0.232906666667     0.294655000000     0          
C35      C      0.441460000000     0.232906666667     0.794655000000     0          
C35      C      0.441460000000     0.566240000000     0.294655000000     0          
C35      C      0.441460000000     0.566240000000     0.794655000000     0          
C35      C      0.441460000000     0.899573333333     0.294655000000     0          
C35      C      0.441460000000     0.899573333333     0.794655000000     0          
C35      C      0.641460000000     0.232906666667     0.294655000000     0          
C35      C      0.641460000000     0.232906666667     0.794655000000     0          
C35      C      0.641460000000     0.566240000000     0.294655000000     0          
C35      C      0.641460000000     0.566240000000     0.794655000000     0          
C35      C      0.641460000000     0.899573333333     0.294655000000     0          
C35      C      0.641460000000     0.899573333333     0.794655000000     0          
C35      C      0.841460000000     0.232906666667     0.294655000000     0          
C35      C      0.841460000000     0.232906666667     0.794655000000     0          
C35      C      0.841460000000     0.566240000000     0.294655000000     0          
C35      C      0.841460000000     0.566240000000     0.794655000000     0          
C35      C      0.841460000000     0.899573333333     0.294655000000     0          
C35      C      0.841460000000     0.899573333333     0.794655000000     0          
C36      C      0.066260000000     0.205520000000     0.244600000000     0          
C36      C      0.066260000000     0.205520000000     0.744600000000     0          
C36      C      0.066260000000     0.538853333333     0.244600000000     0          
C36      C      0.066260000000     0.538853333333     0.744600000000     0          
C36      C      0.066260000000     0.872186666667     0.244600000000     0          
C36      C      0.066260000000     0.872186666667     0.744600000000     0          
C36      C      0.266260000000     0.205520000000     0.244600000000     0          
C36      C      0.266260000000     0.205520000000     0.744600000000     0          
C36      C      0.266260000000     0.538853333333     0.244600000000     0          
C36      C      0.266260000000     0.538853333333     0.744600000000     0          
C36      C      0.266260000000     0.872186666667     0.244600000000     0          
C36      C      0.266260000000     0.872186666667     0.744600000000     0          
C36      C      0.466260000000     0.205520000000     0.244600000000     0          
C36      C      0.466260000000     0.205520000000     0.744600000000     0          
C36      C      0.466260000000     0.538853333333     0.244600000000     0          
C36      C      0.466260000000     0.538853333333     0.744600000000     0          
C36      C      0.466260000000     0.872186666667     0.244600000000     0          
C36      C      0.466260000000     0.872186666667     0.744600000000     0          
C36      C      0.666260000000     0.205520000000     0.244600000000     0          
C36      C      0.666260000000     0.205520000000     0.744600000000     0          
C36      C      0.666260000000     0.538853333333     0.244600000000     0          
C36      C      0.666260000000     0.538853333333     0.744600000000     0          
C36      C      0.666260000000     0.872186666667     0.244600000000     0          
C36      C      0.666260000000     0.872186666667     0.744600000000     0          
C36      C      0.866260000000     0.205520000000     0.244600000000     0          
C36      C      0.866260000000     0.205520000000     0.744600000000     0          
C36      C      0.866260000000     0.538853333333     0.244600000000     0          
C36      C      0.866260000000     0.538853333333     0.744600000000     0          
C36      C      0.866260000000     0.872186666667     0.244600000000     0          
C36      C      0.866260000000     0.872186666667     0.744600000000     0          
C37      C      0.065440000000     0.240170000000     0.164050000000     0          
C37      C      0.065440000000     0.240170000000     0.664050000000     0          
C37      C      0.065440000000     0.573503333333     0.164050000000     0          
C37      C      0.065440000000     0.573503333333     0.664050000000     0          
C37      C      0.065440000000     0.906836666667     0.164050000000     0          
C37      C      0.065440000000     0.906836666667     0.664050000000     0          
C37      C      0.265440000000     0.240170000000     0.164050000000     0          
C37      C      0.265440000000     0.240170000000     0.664050000000     0          
C37      C      0.265440000000     0.573503333333     0.164050000000     0          
C37      C      0.265440000000     0.573503333333     0.664050000000     0          
C37      C      0.265440000000     0.906836666667     0.164050000000     0          
C37      C      0.265440000000     0.906836666667     0.664050000000     0          
C37      C      0.465440000000     0.240170000000     0.164050000000     0          
C37      C      0.465440000000     0.240170000000     0.664050000000     0          
C37      C      0.465440000000     0.573503333333     0.164050000000     0          
C37      C      0.465440000000     0.573503333333     0.664050000000     0          
C37      C      0.465440000000     0.906836666667     0.164050000000     0          
C37      C      0.465440000000     0.906836666667     0.664050000000     0          
C37      C      0.665440000000     0.240170000000     0.164050000000     0          
C37      C      0.665440000000     0.240170000000     0.664050000000     0          
C37      C      0.665440000000     0.573503333333     0.164050000000     0          
C37      C      0.665440000000     0.573503333333     0.664050000000     0          
C37      C      0.665440000000     0.906836666667     0.164050000000     0          
C37      C      0.665440000000     0.906836666667     0.664050000000     0          
C37      C      0.865440000000     0.240170000000     0.164050000000     0          
C37      C      0.865440000000     0.240170000000     0.664050000000     0          
C37      C      0.865440000000     0.573503333333     0.164050000000     0          
C37      C      0.865440000000     0.573503333333     0.664050000000     0          
C37      C      0.865440000000     0.906836666667     0.164050000000     0          
C37      C      0.865440000000     0.906836666667     0.664050000000     0          
C38      C      0.075120000000     0.270920000000     0.149875000000     0          
C38      C      0.075120000000     0.270920000000     0.649875000000     0          
C38      C      0.075120000000     0.604253333333     0.149875000000     0          
C38      C      0.075120000000     0.604253333333     0.649875000000     0          
C38      C      0.075120000000     0.937586666667     0.149875000000     0          
C38      C      0.075120000000     0.937586666667     0.649875000000     0          
C38      C      0.275120000000     0.270920000000     0.149875000000     0          
C38      C      0.275120000000     0.270920000000     0.649875000000     0          
C38      C      0.275120000000     0.604253333333     0.149875000000     0          
C38      C      0.275120000000     0.604253333333     0.649875000000     0          
C38      C      0.275120000000     0.937586666667     0.149875000000     0          
C38      C      0.275120000000     0.937586666667     0.649875000000     0          
C38      C      0.475120000000     0.270920000000     0.149875000000     0          
C38      C      0.475120000000     0.270920000000     0.649875000000     0          
C38      C      0.475120000000     0.604253333333     0.149875000000     0          
C38      C      0.475120000000     0.604253333333     0.649875000000     0          
C38      C      0.475120000000     0.937586666667     0.149875000000     0          
C38      C      0.475120000000     0.937586666667     0.649875000000     0          
C38      C      0.675120000000     0.270920000000     0.149875000000     0          
C38      C      0.675120000000     0.270920000000     0.649875000000     0          
C38      C      0.675120000000     0.604253333333     0.149875000000     0          
C38      C      0.675120000000     0.604253333333     0.649875000000     0          
C38      C      0.675120000000     0.937586666667     0.149875000000     0          
C38      C      0.675120000000     0.937586666667     0.649875000000     0          
C38      C      0.875120000000     0.270920000000     0.149875000000     0          
C38      C      0.875120000000     0.270920000000     0.649875000000     0          
C38      C      0.875120000000     0.604253333333     0.149875000000     0          
C38      C      0.875120000000     0.604253333333     0.649875000000     0          
C38      C      0.875120000000     0.937586666667     0.149875000000     0          
C38      C      0.875120000000     0.937586666667     0.649875000000     0          
C39      C      0.198580000000     0.299126666667     0.165200000000     0          
C39      C      0.198580000000     0.299126666667     0.665200000000     0          
C39      C      0.198580000000     0.632460000000     0.165200000000     0          
C39      C      0.198580000000     0.632460000000     0.665200000000     0          
C39      C      0.198580000000     0.965793333333     0.165200000000     0          
C39      C      0.198580000000     0.965793333333     0.665200000000     0          
C39      C      0.398580000000     0.299126666667     0.165200000000     0          
C39      C      0.398580000000     0.299126666667     0.665200000000     0          
C39      C      0.398580000000     0.632460000000     0.165200000000     0          
C39      C      0.398580000000     0.632460000000     0.665200000000     0          
C39      C      0.398580000000     0.965793333333     0.165200000000     0          
C39      C      0.398580000000     0.965793333333     0.665200000000     0          
C39      C      0.598580000000     0.299126666667     0.165200000000     0          
C39      C      0.598580000000     0.299126666667     0.665200000000     0          
C39      C      0.598580000000     0.632460000000     0.165200000000     0          
C39      C      0.598580000000     0.632460000000     0.665200000000     0          
C39      C      0.598580000000     0.965793333333     0.165200000000     0          
C39      C      0.598580000000     0.965793333333     0.665200000000     0          
C39      C      0.798580000000     0.299126666667     0.165200000000     0          
C39      C      0.798580000000     0.299126666667     0.665200000000     0          
C39      C      0.798580000000     0.632460000000     0.165200000000     0          
C39      C      0.798580000000     0.632460000000     0.665200000000     0          
C39      C      0.798580000000     0.965793333333     0.165200000000     0          
C39      C      0.798580000000     0.965793333333     0.665200000000     0          
C39      C      0.998580000000     0.299126666667     0.165200000000     0          
C39      C      0.998580000000     0.299126666667     0.665200000000     0          
C39      C      0.998580000000     0.632460000000     0.165200000000     0          
C39      C      0.998580000000     0.632460000000     0.665200000000     0          
C39      C      0.998580000000     0.965793333333     0.165200000000     0          
C39      C      0.998580000000     0.965793333333     0.665200000000     0          
C40      C      0.187800000000     0.234483333333     0.253475000000     0          
C40      C      0.187800000000     0.234483333333     0.753475000000     0          
C40      C      0.187800000000     0.567816666667     0.253475000000     0          
C40      C      0.187800000000     0.567816666667     0.753475000000     0          
C40      C      0.187800000000     0.901150000000     0.253475000000     0          
C40      C      0.187800000000     0.901150000000     0.753475000000     0          
C40      C      0.387800000000     0.234483333333     0.253475000000     0          
C40      C      0.387800000000     0.234483333333     0.753475000000     0          
C40      C      0.387800000000     0.567816666667     0.253475000000     0          
C40      C      0.387800000000     0.567816666667     0.753475000000     0          
C40      C      0.387800000000     0.901150000000     0.253475000000     0          
C40      C      0.387800000000     0.901150000000     0.753475000000     0          
C40      C      0.587800000000     0.234483333333     0.253475000000     0          
C40      C      0.587800000000     0.234483333333     0.753475000000     0          
C40      C      0.587800000000     0.567816666667     0.253475000000     0          
C40      C      0.587800000000     0.567816666667     0.753475000000     0          
C40      C      0.587800000000     0.901150000000     0.253475000000     0          
C40      C      0.587800000000     0.901150000000     0.753475000000     0          
C40      C      0.787800000000     0.234483333333     0.253475000000     0          
C40      C      0.787800000000     0.234483333333     0.753475000000     0          
C40      C      0.787800000000     0.567816666667     0.253475000000     0          
C40      C      0.787800000000     0.567816666667     0.753475000000     0          
C40      C      0.787800000000     0.901150000000     0.253475000000     0          
C40      C      0.787800000000     0.901150000000     0.753475000000     0          
C40      C      0.987800000000     0.234483333333     0.253475000000     0          
C40      C      0.987800000000     0.234483333333     0.753475000000     0          
C40      C      0.987800000000     0.567816666667     0.253475000000     0          
C40      C      0.987800000000     0.567816666667     0.753475000000     0          
C40      C      0.987800000000     0.901150000000     0.253475000000     0          
C40      C      0.987800000000     0.901150000000     0.753475000000     0          
C41      C      0.041660000000     0.300060000000     0.150030000000     0          
C41      C      0.041660000000     0.300060000000     0.650030000000     0          
C41      C      0.041660000000     0.633393333333     0.150030000000     0          
C41      C      0.041660000000     0.633393333333     0.650030000000     0          
C41      C      0.041660000000     0.966726666667     0.150030000000     0          
C41      C      0.041660000000     0.966726666667     0.650030000000     0          
C41      C      0.241660000000     0.300060000000     0.150030000000     0          
C41      C      0.241660000000     0.300060000000     0.650030000000     0          
C41      C      0.241660000000     0.633393333333     0.150030000000     0          
C41      C      0.241660000000     0.633393333333     0.650030000000     0          
C41      C      0.241660000000     0.966726666667     0.150030000000     0          
C41      C      0.241660000000     0.966726666667     0.650030000000     0          
C41      C      0.441660000000     0.300060000000     0.150030000000     0          
C41      C      0.441660000000     0.300060000000     0.650030000000     0          
C41      C      0.441660000000     0.633393333333     0.150030000000     0          
C41      C      0.441660000000     0.633393333333     0.650030000000     0          
C41      C      0.441660000000     0.966726666667     0.150030000000     0          
C41      C      0.441660000000     0.966726666667     0.650030000000     0          
C41      C      0.641660000000     0.300060000000     0.150030000000     0          
C41      C      0.641660000000     0.300060000000     0.650030000000     0          
C41      C      0.641660000000     0.633393333333     0.150030000000     0          
C41      C      0.641660000000     0.633393333333     0.650030000000     0          
C41      C      0.641660000000     0.966726666667     0.150030000000     0          
C41      C      0.641660000000     0.966726666667     0.650030000000     0          
C41      C      0.841660000000     0.300060000000     0.150030000000     0          
C41      C      0.841660000000     0.300060000000     0.650030000000     0          
C41      C      0.841660000000     0.633393333333     0.150030000000     0          
C41      C      0.841660000000     0.633393333333     0.650030000000     0          
C41      C      0.841660000000     0.966726666667     0.150030000000     0          
C41      C      0.841660000000     0.966726666667     0.650030000000     0          
C42      C      0.075920000000     0.214846666667     0.274895000000     0          
C42      C      0.075920000000     0.214846666667     0.774895000000     0          
C42      C      0.075920000000     0.548180000000     0.274895000000     0          
C42      C      0.075920000000     0.548180000000     0.774895000000     0          
C42      C      0.075920000000     0.881513333333     0.274895000000     0          
C42      C      0.075920000000     0.881513333333     0.774895000000     0          
C42      C      0.275920000000     0.214846666667     0.274895000000     0          
C42      C      0.275920000000     0.214846666667     0.774895000000     0          
C42      C      0.275920000000     0.548180000000     0.274895000000     0          
C42      C      0.275920000000     0.548180000000     0.774895000000     0          
C42      C      0.275920000000     0.881513333333     0.274895000000     0          
C42      C      0.275920000000     0.881513333333     0.774895000000     0          
C42      C      0.475920000000     0.214846666667     0.274895000000     0          
C42      C      0.475920000000     0.214846666667     0.774895000000     0          
C42      C      0.475920000000     0.548180000000     0.274895000000     0          
C42      C      0.475920000000     0.548180000000     0.774895000000     0          
C42      C      0.475920000000     0.881513333333     0.274895000000     0          
C42      C      0.475920000000     0.881513333333     0.774895000000     0          
C42      C      0.675920000000     0.214846666667     0.274895000000     0          
C42      C      0.675920000000     0.214846666667     0.774895000000     0          
C42      C      0.675920000000     0.548180000000     0.274895000000     0          
C42      C      0.675920000000     0.548180000000     0.774895000000     0          
C42      C      0.675920000000     0.881513333333     0.274895000000     0          
C42      C      0.675920000000     0.881513333333     0.774895000000     0          
C42      C      0.875920000000     0.214846666667     0.274895000000     0          
C42      C      0.875920000000     0.214846666667     0.774895000000     0          
C42      C      0.875920000000     0.548180000000     0.274895000000     0          
C42      C      0.875920000000     0.548180000000     0.774895000000     0          
C42      C      0.875920000000     0.881513333333     0.274895000000     0          
C42      C      0.875920000000     0.881513333333     0.774895000000     0          
C43      C      0.151720000000     0.168180000000     0.117445000000     0          
C43      C      0.151720000000     0.168180000000     0.617445000000     0          
C43      C      0.151720000000     0.501513333333     0.117445000000     0          
C43      C      0.151720000000     0.501513333333     0.617445000000     0          
C43      C      0.151720000000     0.834846666667     0.117445000000     0          
C43      C      0.151720000000     0.834846666667     0.617445000000     0          
C43      C      0.351720000000     0.168180000000     0.117445000000     0          
C43      C      0.351720000000     0.168180000000     0.617445000000     0          
C43      C      0.351720000000     0.501513333333     0.117445000000     0          
C43      C      0.351720000000     0.501513333333     0.617445000000     0          
C43      C      0.351720000000     0.834846666667     0.117445000000     0          
C43      C      0.351720000000     0.834846666667     0.617445000000     0          
C43      C      0.551720000000     0.168180000000     0.117445000000     0          
C43      C      0.551720000000     0.168180000000     0.617445000000     0          
C43      C      0.551720000000     0.501513333333     0.117445000000     0          
C43      C      0.551720000000     0.501513333333     0.617445000000     0          
C43      C      0.551720000000     0.834846666667     0.117445000000     0          
C43      C      0.551720000000     0.834846666667     0.617445000000     0          
C43      C      0.751720000000     0.168180000000     0.117445000000     0          
C43      C      0.751720000000     0.168180000000     0.617445000000     0          
C43      C      0.751720000000     0.501513333333     0.117445000000     0          
C43      C      0.751720000000     0.501513333333     0.617445000000     0          
C43      C      0.751720000000     0.834846666667     0.117445000000     0          
C43      C      0.751720000000     0.834846666667     0.617445000000     0          
C43      C      0.951720000000     0.168180000000     0.117445000000     0          
C43      C      0.951720000000     0.168180000000     0.617445000000     0          
C43      C      0.951720000000     0.501513333333     0.117445000000     0          
C43      C      0.951720000000     0.501513333333     0.617445000000     0          
C43      C      0.951720000000     0.834846666667     0.117445000000     0          
C43      C      0.951720000000     0.834846666667     0.617445000000     0          
C44      C      0.152140000000     0.258913333333     0.422465000000     0          
C44      C      0.152140000000     0.258913333333     0.922465000000     0          
C44      C      0.152140000000     0.592246666667     0.422465000000     0          
C44      C      0.152140000000     0.592246666667     0.922465000000     0          
C44      C      0.152140000000     0.925580000000     0.422465000000     0          
C44      C      0.152140000000     0.925580000000     0.922465000000     0          
C44      C      0.352140000000     0.258913333333     0.422465000000     0          
C44      C      0.352140000000     0.258913333333     0.922465000000     0          
C44      C      0.352140000000     0.592246666667     0.422465000000     0          
C44      C      0.352140000000     0.592246666667     0.922465000000     0          
C44      C      0.352140000000     0.925580000000     0.422465000000     0          
C44      C      0.352140000000     0.925580000000     0.922465000000     0          
C44      C      0.552140000000     0.258913333333     0.422465000000     0          
C44      C      0.552140000000     0.258913333333     0.922465000000     0          
C44      C      0.552140000000     0.592246666667     0.422465000000     0          
C44      C      0.552140000000     0.592246666667     0.922465000000     0          
C44      C      0.552140000000     0.925580000000     0.422465000000     0          
C44      C      0.552140000000     0.925580000000     0.922465000000     0          
C44      C      0.752140000000     0.258913333333     0.422465000000     0          
C44      C      0.752140000000     0.258913333333     0.922465000000     0          
C44      C      0.752140000000     0.592246666667     0.422465000000     0          
C44      C      0.752140000000     0.592246666667     0.922465000000     0          
C44      C      0.752140000000     0.925580000000     0.422465000000     0          
C44      C      0.752140000000     0.925580000000     0.922465000000     0          
C44      C      0.952140000000     0.258913333333     0.422465000000     0          
C44      C      0.952140000000     0.258913333333     0.922465000000     0          
C44      C      0.952140000000     0.592246666667     0.422465000000     0          
C44      C      0.952140000000     0.592246666667     0.922465000000     0          
C44      C      0.952140000000     0.925580000000     0.422465000000     0          
C44      C      0.952140000000     0.925580000000     0.922465000000     0          
C45      C      0.121840000000     0.285020000000     0.015680000000     0          
C45      C      0.121840000000     0.285020000000     0.515680000000     0          
C45      C      0.121840000000     0.618353333333     0.015680000000     0          
C45      C      0.121840000000     0.618353333333     0.515680000000     0          
C45      C      0.121840000000     0.951686666667     0.015680000000     0          
C45      C      0.121840000000     0.951686666667     0.515680000000     0          
C45      C      0.321840000000     0.285020000000     0.015680000000     0          
C45      C      0.321840000000     0.285020000000     0.515680000000     0          
C45      C      0.321840000000     0.618353333333     0.015680000000     0          
C45      C      0.321840000000     0.618353333333     0.515680000000     0          
C45      C      0.321840000000     0.951686666667     0.015680000000     0          
C45      C      0.321840000000     0.951686666667     0.515680000000     0          
C45      C      0.521840000000     0.285020000000     0.015680000000     0          
C45      C      0.521840000000     0.285020000000     0.515680000000     0          
C45      C      0.521840000000     0.618353333333     0.015680000000     0          
C45      C      0.521840000000     0.618353333333     0.515680000000     0          
C45      C      0.521840000000     0.951686666667     0.015680000000     0          
C45      C      0.521840000000     0.951686666667     0.515680000000     0          
C45      C      0.721840000000     0.285020000000     0.015680000000     0          
C45      C      0.721840000000     0.285020000000     0.515680000000     0          
C45      C      0.721840000000     0.618353333333     0.015680000000     0          
C45      C      0.721840000000     0.618353333333     0.515680000000     0          
C45      C      0.721840000000     0.951686666667     0.015680000000     0          
C45      C      0.721840000000     0.951686666667     0.515680000000     0          
C45      C      0.921840000000     0.285020000000     0.015680000000     0          
C45      C      0.921840000000     0.285020000000     0.515680000000     0          
C45      C      0.921840000000     0.618353333333     0.015680000000     0          
C45      C      0.921840000000     0.618353333333     0.515680000000     0          
C45      C      0.921840000000     0.951686666667     0.015680000000     0          
C45      C      0.921840000000     0.951686666667     0.515680000000     0          
C46      C      0.122080000000     0.260353333333     0.071095000000     0          
C46      C      0.122080000000     0.260353333333     0.571095000000     0          
C46      C      0.122080000000     0.593686666667     0.071095000000     0          
C46      C      0.122080000000     0.593686666667     0.571095000000     0          
C46      C      0.122080000000     0.927020000000     0.071095000000     0          
C46      C      0.122080000000     0.927020000000     0.571095000000     0          
C46      C      0.322080000000     0.260353333333     0.071095000000     0          
C46      C      0.322080000000     0.260353333333     0.571095000000     0          
C46      C      0.322080000000     0.593686666667     0.071095000000     0          
C46      C      0.322080000000     0.593686666667     0.571095000000     0          
C46      C      0.322080000000     0.927020000000     0.071095000000     0          
C46      C      0.322080000000     0.927020000000     0.571095000000     0          
C46      C      0.522080000000     0.260353333333     0.071095000000     0          
C46      C      0.522080000000     0.260353333333     0.571095000000     0          
C46      C      0.522080000000     0.593686666667     0.071095000000     0          
C46      C      0.522080000000     0.593686666667     0.571095000000     0          
C46      C      0.522080000000     0.927020000000     0.071095000000     0          
C46      C      0.522080000000     0.927020000000     0.571095000000     0          
C46      C      0.722080000000     0.260353333333     0.071095000000     0          
C46      C      0.722080000000     0.260353333333     0.571095000000     0          
C46      C      0.722080000000     0.593686666667     0.071095000000     0          
C46      C      0.722080000000     0.593686666667     0.571095000000     0          
C46      C      0.722080000000     0.927020000000     0.071095000000     0          
C46      C      0.722080000000     0.927020000000     0.571095000000     0          
C46      C      0.922080000000     0.260353333333     0.071095000000     0          
C46      C      0.922080000000     0.260353333333     0.571095000000     0          
C46      C      0.922080000000     0.593686666667     0.071095000000     0          
C46      C      0.922080000000     0.593686666667     0.571095000000     0          
C46      C      0.922080000000     0.927020000000     0.071095000000     0          
C46      C      0.922080000000     0.927020000000     0.571095000000     0          
C47      C      0.088660000000     0.230986666667     0.069980000000     0          
C47      C      0.088660000000     0.230986666667     0.569980000000     0          
C47      C      0.088660000000     0.564320000000     0.069980000000     0          
C47      C      0.088660000000     0.564320000000     0.569980000000     0          
C47      C      0.088660000000     0.897653333333     0.069980000000     0          
C47      C      0.088660000000     0.897653333333     0.569980000000     0          
C47      C      0.288660000000     0.230986666667     0.069980000000     0          
C47      C      0.288660000000     0.230986666667     0.569980000000     0          
C47      C      0.288660000000     0.564320000000     0.069980000000     0          
C47      C      0.288660000000     0.564320000000     0.569980000000     0          
C47      C      0.288660000000     0.897653333333     0.069980000000     0          
C47      C      0.288660000000     0.897653333333     0.569980000000     0          
C47      C      0.488660000000     0.230986666667     0.069980000000     0          
C47      C      0.488660000000     0.230986666667     0.569980000000     0          
C47      C      0.488660000000     0.564320000000     0.069980000000     0          
C47      C      0.488660000000     0.564320000000     0.569980000000     0          
C47      C      0.488660000000     0.897653333333     0.069980000000     0          
C47      C      0.488660000000     0.897653333333     0.569980000000     0          
C47      C      0.688660000000     0.230986666667     0.069980000000     0          
C47      C      0.688660000000     0.230986666667     0.569980000000     0          
C47      C      0.688660000000     0.564320000000     0.069980000000     0          
C47      C      0.688660000000     0.564320000000     0.569980000000     0          
C47      C      0.688660000000     0.897653333333     0.069980000000     0          
C47      C      0.688660000000     0.897653333333     0.569980000000     0          
C47      C      0.888660000000     0.230986666667     0.069980000000     0          
C47      C      0.888660000000     0.230986666667     0.569980000000     0          
C47      C      0.888660000000     0.564320000000     0.069980000000     0          
C47      C      0.888660000000     0.564320000000     0.569980000000     0          
C47      C      0.888660000000     0.897653333333     0.069980000000     0          
C47      C      0.888660000000     0.897653333333     0.569980000000     0          
C48      C      0.097720000000     0.256750000000     0.466140000000     0          
C48      C      0.097720000000     0.256750000000     0.966140000000     0          
C48      C      0.097720000000     0.590083333333     0.466140000000     0          
C48      C      0.097720000000     0.590083333333     0.966140000000     0          
C48      C      0.097720000000     0.923416666667     0.466140000000     0          
C48      C      0.097720000000     0.923416666667     0.966140000000     0          
C48      C      0.297720000000     0.256750000000     0.466140000000     0          
C48      C      0.297720000000     0.256750000000     0.966140000000     0          
C48      C      0.297720000000     0.590083333333     0.466140000000     0          
C48      C      0.297720000000     0.590083333333     0.966140000000     0          
C48      C      0.297720000000     0.923416666667     0.466140000000     0          
C48      C      0.297720000000     0.923416666667     0.966140000000     0          
C48      C      0.497720000000     0.256750000000     0.466140000000     0          
C48      C      0.497720000000     0.256750000000     0.966140000000     0          
C48      C      0.497720000000     0.590083333333     0.466140000000     0          
C48      C      0.497720000000     0.590083333333     0.966140000000     0          
C48      C      0.497720000000     0.923416666667     0.466140000000     0          
C48      C      0.497720000000     0.923416666667     0.966140000000     0          
C48      C      0.697720000000     0.256750000000     0.466140000000     0          
C48      C      0.697720000000     0.256750000000     0.966140000000     0          
C48      C      0.697720000000     0.590083333333     0.466140000000     0          
C48      C      0.697720000000     0.590083333333     0.966140000000     0          
C48      C      0.697720000000     0.923416666667     0.466140000000     0          
C48      C      0.697720000000     0.923416666667     0.966140000000     0          
C48      C      0.897720000000     0.256750000000     0.466140000000     0          
C48      C      0.897720000000     0.256750000000     0.966140000000     0          
C48      C      0.897720000000     0.590083333333     0.466140000000     0          
C48      C      0.897720000000     0.590083333333     0.966140000000     0          
C48      C      0.897720000000     0.923416666667     0.466140000000     0          
C48      C      0.897720000000     0.923416666667     0.966140000000     0          
C49      C      0.141460000000     0.267093333333     0.455345000000     0          
C49      C      0.141460000000     0.267093333333     0.955345000000     0          
C49      C      0.141460000000     0.600426666667     0.455345000000     0          
C49      C      0.141460000000     0.600426666667     0.955345000000     0          
C49      C      0.141460000000     0.933760000000     0.455345000000     0          
C49      C      0.141460000000     0.933760000000     0.955345000000     0          
C49      C      0.341460000000     0.267093333333     0.455345000000     0          
C49      C      0.341460000000     0.267093333333     0.955345000000     0          
C49      C      0.341460000000     0.600426666667     0.455345000000     0          
C49      C      0.341460000000     0.600426666667     0.955345000000     0          
C49      C      0.341460000000     0.933760000000     0.455345000000     0          
C49      C      0.341460000000     0.933760000000     0.955345000000     0          
C49      C      0.541460000000     0.267093333333     0.455345000000     0          
C49      C      0.541460000000     0.267093333333     0.955345000000     0          
C49      C      0.541460000000     0.600426666667     0.455345000000     0          
C49      C      0.541460000000     0.600426666667     0.955345000000     0          
C49      C      0.541460000000     0.933760000000     0.455345000000     0          
C49      C      0.541460000000     0.933760000000     0.955345000000     0          
C49      C      0.741460000000     0.267093333333     0.455345000000     0          
C49      C      0.741460000000     0.267093333333     0.955345000000     0          
C49      C      0.741460000000     0.600426666667     0.455345000000     0          
C49      C      0.741460000000     0.600426666667     0.955345000000     0          
C49      C      0.741460000000     0.933760000000     0.455345000000     0          
C49      C      0.741460000000     0.933760000000     0.955345000000     0          
C49      C      0.941460000000     0.267093333333     0.455345000000     0          
C49      C      0.941460000000     0.267093333333     0.955345000000     0          
C49      C      0.941460000000     0.600426666667     0.455345000000     0          
C49      C      0.941460000000     0.600426666667     0.955345000000     0          
C49      C      0.941460000000     0.933760000000     0.455345000000     0          
C49      C      0.941460000000     0.933760000000     0.955345000000     0          
C50      C      0.166260000000     0.294480000000     0.005400000000     0          
C50      C      0.166260000000     0.294480000000     0.505400000000     0          
C50      C      0.166260000000     0.627813333333     0.005400000000     0          
C50      C      0.166260000000     0.627813333333     0.505400000000     0          
C50      C      0.166260000000     0.961146666667     0.005400000000     0          
C50      C      0.166260000000     0.961146666667     0.505400000000     0          
C50      C      0.366260000000     0.294480000000     0.005400000000     0          
C50      C      0.366260000000     0.294480000000     0.505400000000     0          
C50      C      0.366260000000     0.627813333333     0.005400000000     0          
C50      C      0.366260000000     0.627813333333     0.505400000000     0          
C50      C      0.366260000000     0.961146666667     0.005400000000     0          
C50      C      0.366260000000     0.961146666667     0.505400000000     0          
C50      C      0.566260000000     0.294480000000     0.005400000000     0          
C50      C      0.566260000000     0.294480000000     0.505400000000     0          
C50      C      0.566260000000     0.627813333333     0.005400000000     0          
C50      C      0.566260000000     0.627813333333     0.505400000000     0          
C50      C      0.566260000000     0.961146666667     0.005400000000     0          
C50      C      0.566260000000     0.961146666667     0.505400000000     0          
C50      C      0.766260000000     0.294480000000     0.005400000000     0          
C50      C      0.766260000000     0.294480000000     0.505400000000     0          
C50      C      0.766260000000     0.627813333333     0.005400000000     0          
C50      C      0.766260000000     0.627813333333     0.505400000000     0          
C50      C      0.766260000000     0.961146666667     0.005400000000     0          
C50      C      0.766260000000     0.961146666667     0.505400000000     0          
C50      C      0.966260000000     0.294480000000     0.005400000000     0          
C50      C      0.966260000000     0.294480000000     0.505400000000     0          
C50      C      0.966260000000     0.627813333333     0.005400000000     0          
C50      C      0.966260000000     0.627813333333     0.505400000000     0          
C50      C      0.966260000000     0.961146666667     0.005400000000     0          
C50      C      0.966260000000     0.961146666667     0.505400000000     0          
C51      C      0.165440000000     0.259830000000     0.085950000000     0          
C51      C      0.165440000000     0.259830000000     0.585950000000     0          
C51      C      0.165440000000     0.593163333333     0.085950000000     0          
C51      C      0.165440000000     0.593163333333     0.585950000000     0          
C51      C      0.165440000000     0.926496666667     0.085950000000     0          
C51      C      0.165440000000     0.926496666667     0.585950000000     0          
C51      C      0.365440000000     0.259830000000     0.085950000000     0          
C51      C      0.365440000000     0.259830000000     0.585950000000     0          
C51      C      0.365440000000     0.593163333333     0.085950000000     0          
C51      C      0.365440000000     0.593163333333     0.585950000000     0          
C51      C      0.365440000000     0.926496666667     0.085950000000     0          
C51      C      0.365440000000     0.926496666667     0.585950000000     0          
C51      C      0.565440000000     0.259830000000     0.085950000000     0          
C51      C      0.565440000000     0.259830000000     0.585950000000     0          
C51      C      0.565440000000     0.593163333333     0.085950000000     0          
C51      C      0.565440000000     0.593163333333     0.585950000000     0          
C51      C      0.565440000000     0.926496666667     0.085950000000     0          
C51      C      0.565440000000     0.926496666667     0.585950000000     0          
C51      C      0.765440000000     0.259830000000     0.085950000000     0          
C51      C      0.765440000000     0.259830000000     0.585950000000     0          
C51      C      0.765440000000     0.593163333333     0.085950000000     0          
C51      C      0.765440000000     0.593163333333     0.585950000000     0          
C51      C      0.765440000000     0.926496666667     0.085950000000     0          
C51      C      0.765440000000     0.926496666667     0.585950000000     0          
C51      C      0.965440000000     0.259830000000     0.085950000000     0          
C51      C      0.965440000000     0.259830000000     0.585950000000     0          
C51      C      0.965440000000     0.593163333333     0.085950000000     0          
C51      C      0.965440000000     0.593163333333     0.585950000000     0          
C51      C      0.965440000000     0.926496666667     0.085950000000     0          
C51      C      0.965440000000     0.926496666667     0.585950000000     0          
C52      C      0.175120000000     0.229080000000     0.100125000000     0          
C52      C      0.175120000000     0.229080000000     0.600125000000     0          
C52      C      0.175120000000     0.562413333333     0.100125000000     0          
C52      C      0.175120000000     0.562413333333     0.600125000000     0          
C52      C      0.175120000000     0.895746666667     0.100125000000     0          
C52      C      0.175120000000     0.895746666667     0.600125000000     0          
C52      C      0.375120000000     0.229080000000     0.100125000000     0          
C52      C      0.375120000000     0.229080000000     0.600125000000     0          
C52      C      0.375120000000     0.562413333333     0.100125000000     0          
C52      C      0.375120000000     0.562413333333     0.600125000000     0          
C52      C      0.375120000000     0.895746666667     0.100125000000     0          
C52      C      0.375120000000     0.895746666667     0.600125000000     0          
C52      C      0.575120000000     0.229080000000     0.100125000000     0          
C52      C      0.575120000000     0.229080000000     0.600125000000     0          
C52      C      0.575120000000     0.562413333333     0.100125000000     0          
C52      C      0.575120000000     0.562413333333     0.600125000000     0          
C52      C      0.575120000000     0.895746666667     0.100125000000     0          
C52      C      0.575120000000     0.895746666667     0.600125000000     0          
C52      C      0.775120000000     0.229080000000     0.100125000000     0          
C52      C      0.775120000000     0.229080000000     0.600125000000     0          
C52      C      0.775120000000     0.562413333333     0.100125000000     0          
C52      C      0.775120000000     0.562413333333     0.600125000000     0          
C52      C      0.775120000000     0.895746666667     0.100125000000     0          
C52      C      0.775120000000     0.895746666667     0.600125000000     0          
C52      C      0.975120000000     0.229080000000     0.100125000000     0          
C52      C      0.975120000000     0.229080000000     0.600125000000     0          
C52      C      0.975120000000     0.562413333333     0.100125000000     0          
C52      C      0.975120000000     0.562413333333     0.600125000000     0          
C52      C      0.975120000000     0.895746666667     0.100125000000     0          
C52      C      0.975120000000     0.895746666667     0.600125000000     0          
C53      C      0.098580000000     0.200873333333     0.084800000000     0          
C53      C      0.098580000000     0.200873333333     0.584800000000     0          
C53      C      0.098580000000     0.534206666667     0.084800000000     0          
C53      C      0.098580000000     0.534206666667     0.584800000000     0          
C53      C      0.098580000000     0.867540000000     0.084800000000     0          
C53      C      0.098580000000     0.867540000000     0.584800000000     0          
C53      C      0.298580000000     0.200873333333     0.084800000000     0          
C53      C      0.298580000000     0.200873333333     0.584800000000     0          
C53      C      0.298580000000     0.534206666667     0.084800000000     0          
C53      C      0.298580000000     0.534206666667     0.584800000000     0          
C53      C      0.298580000000     0.867540000000     0.084800000000     0          
C53      C      0.298580000000     0.867540000000     0.584800000000     0          
C53      C      0.498580000000     0.200873333333     0.084800000000     0          
C53      C      0.498580000000     0.200873333333     0.584800000000     0          
C53      C      0.498580000000     0.534206666667     0.084800000000     0          
C53      C      0.498580000000     0.534206666667     0.584800000000     0          
C53      C      0.498580000000     0.867540000000     0.084800000000     0          
C53      C      0.498580000000     0.867540000000     0.584800000000     0          
C53      C      0.698580000000     0.200873333333     0.084800000000     0          
C53      C      0.698580000000     0.200873333333     0.584800000000     0          
C53      C      0.698580000000     0.534206666667     0.084800000000     0          
C53      C      0.698580000000     0.534206666667     0.584800000000     0          
C53      C      0.698580000000     0.867540000000     0.084800000000     0          
C53      C      0.698580000000     0.867540000000     0.584800000000     0          
C53      C      0.898580000000     0.200873333333     0.084800000000     0          
C53      C      0.898580000000     0.200873333333     0.584800000000     0          
C53      C      0.898580000000     0.534206666667     0.084800000000     0          
C53      C      0.898580000000     0.534206666667     0.584800000000     0          
C53      C      0.898580000000     0.867540000000     0.084800000000     0          
C53      C      0.898580000000     0.867540000000     0.584800000000     0          
C54      C      0.087800000000     0.265516666667     0.496525000000     0          
C54      C      0.087800000000     0.265516666667     0.996525000000     0          
C54      C      0.087800000000     0.598850000000     0.496525000000     0          
C54      C      0.087800000000     0.598850000000     0.996525000000     0          
C54      C      0.087800000000     0.932183333333     0.496525000000     0          
C54      C      0.087800000000     0.932183333333     0.996525000000     0          
C54      C      0.287800000000     0.265516666667     0.496525000000     0          
C54      C      0.287800000000     0.265516666667     0.996525000000     0          
C54      C      0.287800000000     0.598850000000     0.496525000000     0          
C54      C      0.287800000000     0.598850000000     0.996525000000     0          
C54      C      0.287800000000     0.932183333333     0.496525000000     0          
C54      C      0.287800000000     0.932183333333     0.996525000000     0          
C54      C      0.487800000000     0.265516666667     0.496525000000     0          
C54      C      0.487800000000     0.265516666667     0.996525000000     0          
C54      C      0.487800000000     0.598850000000     0.496525000000     0          
C54      C      0.487800000000     0.598850000000     0.996525000000     0          
C54      C      0.487800000000     0.932183333333     0.496525000000     0          
C54      C      0.487800000000     0.932183333333     0.996525000000     0          
C54      C      0.687800000000     0.265516666667     0.496525000000     0          
C54      C      0.687800000000     0.265516666667     0.996525000000     0          
C54      C      0.687800000000     0.598850000000     0.496525000000     0          
C54      C      0.687800000000     0.598850000000     0.996525000000     0          
C54      C      0.687800000000     0.932183333333     0.496525000000     0          
C54      C      0.687800000000     0.932183333333     0.996525000000     0          
C54      C      0.887800000000     0.265516666667     0.496525000000     0          
C54      C      0.887800000000     0.265516666667     0.996525000000     0          
C54      C      0.887800000000     0.598850000000     0.496525000000     0          
C54      C      0.887800000000     0.598850000000     0.996525000000     0          
C54      C      0.887800000000     0.932183333333     0.496525000000     0          
C54      C      0.887800000000     0.932183333333     0.996525000000     0          
C55      C      0.141660000000     0.199940000000     0.099970000000     0          
C55      C      0.141660000000     0.199940000000     0.599970000000     0          
C55      C      0.141660000000     0.533273333333     0.099970000000     0          
C55      C      0.141660000000     0.533273333333     0.599970000000     0          
C55      C      0.141660000000     0.866606666667     0.099970000000     0          
C55      C      0.141660000000     0.866606666667     0.599970000000     0          
C55      C      0.341660000000     0.199940000000     0.099970000000     0          
C55      C      0.341660000000     0.199940000000     0.599970000000     0          
C55      C      0.341660000000     0.533273333333     0.099970000000     0          
C55      C      0.341660000000     0.533273333333     0.599970000000     0          
C55      C      0.341660000000     0.866606666667     0.099970000000     0          
C55      C      0.341660000000     0.866606666667     0.599970000000     0          
C55      C      0.541660000000     0.199940000000     0.099970000000     0          
C55      C      0.541660000000     0.199940000000     0.599970000000     0          
C55      C      0.541660000000     0.533273333333     0.099970000000     0          
C55      C      0.541660000000     0.533273333333     0.599970000000     0          
C55      C      0.541660000000     0.866606666667     0.099970000000     0          
C55      C      0.541660000000     0.866606666667     0.599970000000     0          
C55      C      0.741660000000     0.199940000000     0.099970000000     0          
C55      C      0.741660000000     0.199940000000     0.599970000000     0          
C55      C      0.741660000000     0.533273333333     0.099970000000     0          
C55      C      0.741660000000     0.533273333333     0.599970000000     0          
C55      C      0.741660000000     0.866606666667     0.099970000000     0          
C55      C      0.741660000000     0.866606666667     0.599970000000     0          
C55      C      0.941660000000     0.199940000000     0.099970000000     0          
C55      C      0.941660000000     0.199940000000     0.599970000000     0          
C55      C      0.941660000000     0.533273333333     0.099970000000     0          
C55      C      0.941660000000     0.533273333333     0.599970000000     0          
C55      C      0.941660000000     0.866606666667     0.099970000000     0          
C55      C      0.941660000000     0.866606666667     0.599970000000     0          
C56      C      0.175920000000     0.285153333333     0.475105000000     0          
C56      C      0.175920000000     0.285153333333     0.975105000000     0          
C56      C      0.175920000000     0.618486666667     0.475105000000     0          
C56      C      0.175920000000     0.618486666667     0.975105000000     0          
C56      C      0.175920000000     0.951820000000     0.475105000000     0          
C56      C      0.175920000000     0.951820000000     0.975105000000     0          
C56      C      0.375920000000     0.285153333333     0.475105000000     0          
C56      C      0.375920000000     0.285153333333     0.975105000000     0          
C56      C      0.375920000000     0.618486666667     0.475105000000     0          
C56      C      0.375920000000     0.618486666667     0.975105000000     0          
C56      C      0.375920000000     0.951820000000     0.475105000000     0          
C56      C      0.375920000000     0.951820000000     0.975105000000     0          
C56      C      0.575920000000     0.285153333333     0.475105000000     0          
C56      C      0.575920000000     0.285153333333     0.975105000000     0          
C56      C      0.575920000000     0.618486666667     0.475105000000     0          
C56      C      0.575920000000     0.618486666667     0.975105000000     0          
C56      C      0.575920000000     0.951820000000     0.475105000000     0          
C56      C      0.575920000000     0.951820000000     0.975105000000     0          
C56      C      0.775920000000     0.285153333333     0.475105000000     0          
C56      C      0.775920000000     0.285153333333     0.975105000000     0          
C56      C      0.775920000000     0.618486666667     0.475105000000     0          
C56      C      0.775920000000     0.618486666667     0.975105000000     0          
C56      C      0.775920000000     0.951820000000     0.475105000000     0          
C56      C      0.775920000000     0.951820000000     0.975105000000     0          
C56      C      0.975920000000     0.285153333333     0.475105000000     0          
C56      C      0.975920000000     0.285153333333     0.975105000000     0          
C56      C      0.975920000000     0.618486666667     0.475105000000     0          
C56      C      0.975920000000     0.618486666667     0.975105000000     0          
C56      C      0.975920000000     0.951820000000     0.475105000000     0          
C56      C      0.975920000000     0.951820000000     0.975105000000     0          
S1       S      0.192726000000     0.132783333333     0.303840000000     0          
S1       S      0.192726000000     0.132783333333     0.803840000000     0          
S1       S      0.192726000000     0.466116666667     0.303840000000     0          
S1       S      0.192726000000     0.466116666667     0.803840000000     0          
S1       S      0.192726000000     0.799450000000     0.303840000000     0          
S1       S      0.192726000000     0.799450000000     0.803840000000     0          
S1       S      0.392726000000     0.132783333333     0.303840000000     0          
S1       S      0.392726000000     0.132783333333     0.803840000000     0          
S1       S      0.392726000000     0.466116666667     0.303840000000     0          
S1       S      0.392726000000     0.466116666667     0.803840000000     0          
S1       S      0.392726000000     0.799450000000     0.303840000000     0          
S1       S      0.392726000000     0.799450000000     0.803840000000     0          
S1       S      0.592726000000     0.132783333333     0.303840000000     0          
S1       S      0.592726000000     0.132783333333     0.803840000000     0          
S1       S      0.592726000000     0.466116666667     0.303840000000     0          
S1       S      0.592726000000     0.466116666667     0.803840000000     0          
S1       S      0.592726000000     0.799450000000     0.303840000000     0          
S1       S      0.592726000000     0.799450000000     0.803840000000     0          
S1       S      0.792726000000     0.132783333333     0.303840000000     0          
S1       S      0.792726000000     0.132783333333     0.803840000000     0          
S1       S      0.792726000000     0.466116666667     0.303840000000     0          
S1       S      0.792726000000     0.466116666667     0.803840000000     0          
S1       S      0.792726000000     0.799450000000     0.303840000000     0          
S1       S      0.792726000000     0.799450000000     0.803840000000     0          
S1       S      0.992726000000     0.132783333333     0.303840000000     0          
S1       S      0.992726000000     0.132783333333     0.803840000000     0          
S1       S      0.992726000000     0.466116666667     0.303840000000     0          
S1       S      0.992726000000     0.466116666667     0.803840000000     0          
S1       S      0.992726000000     0.799450000000     0.303840000000     0          
S1       S      0.992726000000     0.799450000000     0.803840000000     0          
S2       S      0.092726000000     0.033883333333     0.446160000000     0          
S2       S      0.092726000000     0.033883333333     0.946160000000     0          
S2       S      0.092726000000     0.367216666667     0.446160000000     0          
S2       S      0.092726000000     0.367216666667     0.946160000000     0          
S2       S      0.092726000000     0.700550000000     0.446160000000     0          
S2       S      0.092726000000     0.700550000000     0.946160000000     0          
S2       S      0.292726000000     0.033883333333     0.446160000000     0          
S2       S      0.292726000000     0.033883333333     0.946160000000     0          
S2       S      0.292726000000     0.367216666667     0.446160000000     0          
S2       S      0.292726000000     0.367216666667     0.946160000000     0          
S2       S      0.292726000000     0.700550000000     0.446160000000     0          
S2       S      0.292726000000     0.700550000000     0.946160000000     0          
S2       S      0.492726000000     0.033883333333     0.446160000000     0          
S2       S      0.492726000000     0.033883333333     0.946160000000     0          
S2       S      0.492726000000     0.367216666667     0.446160000000     0          
S2       S      0.492726000000     0.367216666667     0.946160000000     0          
S2       S      0.492726000000     0.700550000000     0.446160000000     0          
S2       S      0.492726000000     0.700550000000     0.946160000000     0          
S2       S      0.692726000000     0.033883333333     0.446160000000     0          
S2       S      0.692726000000     0.033883333333     0.946160000000     0          
S2       S      0.692726000000     0.367216666667     0.446160000000     0          
S2       S      0.692726000000     0.367216666667     0.946160000000     0          
S2       S      0.692726000000     0.700550000000     0.446160000000     0          
S2       S      0.692726000000     0.700550000000     0.946160000000     0          
S2       S      0.892726000000     0.033883333333     0.446160000000     0          
S2       S      0.892726000000     0.033883333333     0.946160000000     0          
S2       S      0.892726000000     0.367216666667     0.446160000000     0          
S2       S      0.892726000000     0.367216666667     0.946160000000     0          
S2       S      0.892726000000     0.700550000000     0.446160000000     0          
S2       S      0.892726000000     0.700550000000     0.946160000000     0          
S3       S      0.007274000000     0.200550000000     0.196160000000     0          
S3       S      0.007274000000     0.200550000000     0.696160000000     0          
S3       S      0.007274000000     0.533883333333     0.196160000000     0          
S3       S      0.007274000000     0.533883333333     0.696160000000     0          
S3       S      0.007274000000     0.867216666667     0.196160000000     0          
S3       S      0.007274000000     0.867216666667     0.696160000000     0          
S3       S      0.207274000000     0.200550000000     0.196160000000     0          
S3       S      0.207274000000     0.200550000000     0.696160000000     0          
S3       S      0.207274000000     0.533883333333     0.196160000000     0          
S3       S      0.207274000000     0.533883333333     0.696160000000     0          
S3       S      0.207274000000     0.867216666667     0.196160000000     0          
S3       S      0.207274000000     0.867216666667     0.696160000000     0          
S3       S      0.407274000000     0.200550000000     0.196160000000     0          
S3       S      0.407274000000     0.200550000000     0.696160000000     0          
S3       S      0.407274000000     0.533883333333     0.196160000000     0          
S3       S      0.407274000000     0.533883333333     0.696160000000     0          
S3       S      0.407274000000     0.867216666667     0.196160000000     0          
S3       S      0.407274000000     0.867216666667     0.696160000000     0          
S3       S      0.607274000000     0.200550000000     0.196160000000     0          
S3       S      0.607274000000     0.200550000000     0.696160000000     0          
S3       S      0.607274000000     0.533883333333     0.196160000000     0          
S3       S      0.607274000000     0.533883333333     0.696160000000     0          
S3       S      0.607274000000     0.867216666667     0.196160000000     0          
S3       S      0.607274000000     0.867216666667     0.696160000000     0          
S3       S      0.807274000000     0.200550000000     0.196160000000     0          
S3       S      0.807274000000     0.200550000000     0.696160000000     0          
S3       S      0.807274000000     0.533883333333     0.196160000000     0          
S3       S      0.807274000000     0.533883333333     0.696160000000     0          
S3       S      0.807274000000     0.867216666667     0.196160000000     0          
S3       S      0.807274000000     0.867216666667     0.696160000000     0          
S4       S      0.107274000000     0.299450000000     0.053840000000     0          
S4       S      0.107274000000     0.299450000000     0.553840000000     0          
S4       S      0.107274000000     0.632783333333     0.053840000000     0          
S4       S      0.107274000000     0.632783333333     0.553840000000     0          
S4       S      0.107274000000     0.966116666667     0.053840000000     0          
S4       S      0.107274000000     0.966116666667     0.553840000000     0          
S4       S      0.307274000000     0.299450000000     0.053840000000     0          
S4       S      0.307274000000     0.299450000000     0.553840000000     0          
S4       S      0.307274000000     0.632783333333     0.053840000000     0          
S4       S      0.307274000000     0.632783333333     0.553840000000     0          
S4       S      0.307274000000     0.966116666667     0.053840000000     0          
S4       S      0.307274000000     0.966116666667     0.553840000000     0          
S4       S      0.507274000000     0.299450000000     0.053840000000     0          
S4       S      0.507274000000     0.299450000000     0.553840000000     0          
S4       S      0.507274000000     0.632783333333     0.053840000000     0          
S4       S      0.507274000000     0.632783333333     0.553840000000     0          
S4       S      0.507274000000     0.966116666667     0.053840000000     0          
S4       S      0.507274000000     0.966116666667     0.553840000000     0          
S4       S      0.707274000000     0.299450000000     0.053840000000     0          
S4       S      0.707274000000     0.299450000000     0.553840000000     0          
S4       S      0.707274000000     0.632783333333     0.053840000000     0          
S4       S      0.707274000000     0.632783333333     0.553840000000     0          
S4       S      0.707274000000     0.966116666667     0.053840000000     0          
S4       S      0.707274000000     0.966116666667     0.553840000000     0          
S4       S      0.907274000000     0.299450000000     0.053840000000     0          
S4       S      0.907274000000     0.299450000000     0.553840000000     0          
S4       S      0.907274000000     0.632783333333     0.053840000000     0          
S4       S      0.907274000000     0.632783333333     0.553840000000     0          
S4       S      0.907274000000     0.966116666667     0.053840000000     0          
S4       S      0.907274000000     0.966116666667     0.553840000000     0          
O1       O      0.161000000000     0.164366666667     0.315480000000     0          
O1       O      0.161000000000     0.164366666667     0.815480000000     0          
O1       O      0.161000000000     0.497700000000     0.315480000000     0          
O1       O      0.161000000000     0.497700000000     0.815480000000     0          
O1       O      0.161000000000     0.831033333333     0.315480000000     0          
O1       O      0.161000000000     0.831033333333     0.815480000000     0          
O1       O      0.361000000000     0.164366666667     0.315480000000     0          
O1       O      0.361000000000     0.164366666667     0.815480000000     0          
O1       O      0.361000000000     0.497700000000     0.315480000000     0          
O1       O      0.361000000000     0.497700000000     0.815480000000     0          
O1       O      0.361000000000     0.831033333333     0.315480000000     0          
O1       O      0.361000000000     0.831033333333     0.815480000000     0          
O1       O      0.561000000000     0.164366666667     0.315480000000     0          
O1       O      0.561000000000     0.164366666667     0.815480000000     0          
O1       O      0.561000000000     0.497700000000     0.315480000000     0          
O1       O      0.561000000000     0.497700000000     0.815480000000     0          
O1       O      0.561000000000     0.831033333333     0.315480000000     0          
O1       O      0.561000000000     0.831033333333     0.815480000000     0          
O1       O      0.761000000000     0.164366666667     0.315480000000     0          
O1       O      0.761000000000     0.164366666667     0.815480000000     0          
O1       O      0.761000000000     0.497700000000     0.315480000000     0          
O1       O      0.761000000000     0.497700000000     0.815480000000     0          
O1       O      0.761000000000     0.831033333333     0.315480000000     0          
O1       O      0.761000000000     0.831033333333     0.815480000000     0          
O1       O      0.961000000000     0.164366666667     0.315480000000     0          
O1       O      0.961000000000     0.164366666667     0.815480000000     0          
O1       O      0.961000000000     0.497700000000     0.315480000000     0          
O1       O      0.961000000000     0.497700000000     0.815480000000     0          
O1       O      0.961000000000     0.831033333333     0.315480000000     0          
O1       O      0.961000000000     0.831033333333     0.815480000000     0          
O2       O      0.183040000000     0.087420000000     0.154680000000     0          
O2       O      0.183040000000     0.087420000000     0.654680000000     0          
O2       O      0.183040000000     0.420753333333     0.154680000000     0          
O2       O      0.183040000000     0.420753333333     0.654680000000     0          
O2       O      0.183040000000     0.754086666667     0.154680000000     0          
O2       O      0.183040000000     0.754086666667     0.654680000000     0          
O2       O      0.383040000000     0.087420000000     0.154680000000     0          
O2       O      0.383040000000     0.087420000000     0.654680000000     0          
O2       O      0.383040000000     0.420753333333     0.154680000000     0          
O2       O      0.383040000000     0.420753333333     0.654680000000     0          
O2       O      0.383040000000     0.754086666667     0.154680000000     0          
O2       O      0.383040000000     0.754086666667     0.654680000000     0          
O2       O      0.583040000000     0.087420000000     0.154680000000     0          
O2       O      0.583040000000     0.087420000000     0.654680000000     0          
O2       O      0.583040000000     0.420753333333     0.154680000000     0          
O2       O      0.583040000000     0.420753333333     0.654680000000     0          
O2       O      0.583040000000     0.754086666667     0.154680000000     0          
O2       O      0.583040000000     0.754086666667     0.654680000000     0          
O2       O      0.783040000000     0.087420000000     0.154680000000     0          
O2       O      0.783040000000     0.087420000000     0.654680000000     0          
O2       O      0.783040000000     0.420753333333     0.154680000000     0          
O2       O      0.783040000000     0.420753333333     0.654680000000     0          
O2       O      0.783040000000     0.754086666667     0.154680000000     0          
O2       O      0.783040000000     0.754086666667     0.654680000000     0          
O2       O      0.983040000000     0.087420000000     0.154680000000     0          
O2       O      0.983040000000     0.087420000000     0.654680000000     0          
O2       O      0.983040000000     0.420753333333     0.154680000000     0          
O2       O      0.983040000000     0.420753333333     0.654680000000     0          
O2       O      0.983040000000     0.754086666667     0.154680000000     0          
O2       O      0.983040000000     0.754086666667     0.654680000000     0          
O3       O      0.043780000000     0.138446666667     0.305880000000     0          
O3       O      0.043780000000     0.138446666667     0.805880000000     0          
O3       O      0.043780000000     0.471780000000     0.305880000000     0          
O3       O      0.043780000000     0.471780000000     0.805880000000     0          
O3       O      0.043780000000     0.805113333333     0.305880000000     0          
O3       O      0.043780000000     0.805113333333     0.805880000000     0          
O3       O      0.243780000000     0.138446666667     0.305880000000     0          
O3       O      0.243780000000     0.138446666667     0.805880000000     0          
O3       O      0.243780000000     0.471780000000     0.305880000000     0          
O3       O      0.243780000000     0.471780000000     0.805880000000     0          
O3       O      0.243780000000     0.805113333333     0.305880000000     0          
O3       O      0.243780000000     0.805113333333     0.805880000000     0          
O3       O      0.443780000000     0.138446666667     0.305880000000     0          
O3       O      0.443780000000     0.138446666667     0.805880000000     0          
O3       O      0.443780000000     0.471780000000     0.305880000000     0          
O3       O      0.443780000000     0.471780000000     0.805880000000     0          
O3       O      0.443780000000     0.805113333333     0.305880000000     0          
O3       O      0.443780000000     0.805113333333     0.805880000000     0          
O3       O      0.643780000000     0.138446666667     0.305880000000     0          
O3       O      0.643780000000     0.138446666667     0.805880000000     0          
O3       O      0.643780000000     0.471780000000     0.305880000000     0          
O3       O      0.643780000000     0.471780000000     0.805880000000     0          
O3       O      0.643780000000     0.805113333333     0.305880000000     0          
O3       O      0.643780000000     0.805113333333     0.805880000000     0          
O3       O      0.843780000000     0.138446666667     0.305880000000     0          
O3       O      0.843780000000     0.138446666667     0.805880000000     0          
O3       O      0.843780000000     0.471780000000     0.305880000000     0          
O3       O      0.843780000000     0.471780000000     0.805880000000     0          
O3       O      0.843780000000     0.805113333333     0.305880000000     0          
O3       O      0.843780000000     0.805113333333     0.805880000000     0          
O4       O      0.105140000000     0.328076666667     0.371890000000     0          
O4       O      0.105140000000     0.328076666667     0.871890000000     0          
O4       O      0.105140000000     0.661410000000     0.371890000000     0          
O4       O      0.105140000000     0.661410000000     0.871890000000     0          
O4       O      0.105140000000     0.994743333333     0.371890000000     0          
O4       O      0.105140000000     0.994743333333     0.871890000000     0          
O4       O      0.305140000000     0.328076666667     0.371890000000     0          
O4       O      0.305140000000     0.328076666667     0.871890000000     0          
O4       O      0.305140000000     0.661410000000     0.371890000000     0          
O4       O      0.305140000000     0.661410000000     0.871890000000     0          
O4       O      0.305140000000     0.994743333333     0.371890000000     0          
O4       O      0.305140000000     0.994743333333     0.871890000000     0          
O4       O      0.505140000000     0.328076666667     0.371890000000     0          
O4       O      0.505140000000     0.328076666667     0.871890000000     0          
O4       O      0.505140000000     0.661410000000     0.371890000000     0          
O4       O      0.505140000000     0.661410000000     0.871890000000     0          
O4       O      0.505140000000     0.994743333333     0.371890000000     0          
O4       O      0.505140000000     0.994743333333     0.871890000000     0          
O4       O      0.705140000000     0.328076666667     0.371890000000     0          
O4       O      0.705140000000     0.328076666667     0.871890000000     0          
O4       O      0.705140000000     0.661410000000     0.371890000000     0          
O4       O      0.705140000000     0.661410000000     0.871890000000     0          
O4       O      0.705140000000     0.994743333333     0.371890000000     0          
O4       O      0.705140000000     0.994743333333     0.871890000000     0          
O4       O      0.905140000000     0.328076666667     0.371890000000     0          
O4       O      0.905140000000     0.328076666667     0.871890000000     0          
O4       O      0.905140000000     0.661410000000     0.371890000000     0          
O4       O      0.905140000000     0.661410000000     0.871890000000     0          
O4       O      0.905140000000     0.994743333333     0.371890000000     0          
O4       O      0.905140000000     0.994743333333     0.871890000000     0          
O5       O      0.183820000000     0.318983333333     0.376425000000     0          
O5       O      0.183820000000     0.318983333333     0.876425000000     0          
O5       O      0.183820000000     0.652316666667     0.376425000000     0          
O5       O      0.183820000000     0.652316666667     0.876425000000     0          
O5       O      0.183820000000     0.985650000000     0.376425000000     0          
O5       O      0.183820000000     0.985650000000     0.876425000000     0          
O5       O      0.383820000000     0.318983333333     0.376425000000     0          
O5       O      0.383820000000     0.318983333333     0.876425000000     0          
O5       O      0.383820000000     0.652316666667     0.376425000000     0          
O5       O      0.383820000000     0.652316666667     0.876425000000     0          
O5       O      0.383820000000     0.985650000000     0.376425000000     0          
O5       O      0.383820000000     0.985650000000     0.876425000000     0          
O5       O      0.583820000000     0.318983333333     0.376425000000     0          
O5       O      0.583820000000     0.318983333333     0.876425000000     0          
O5       O      0.583820000000     0.652316666667     0.376425000000     0          
O5       O      0.583820000000     0.652316666667     0.876425000000     0          
O5       O      0.583820000000     0.985650000000     0.376425000000     0          
O5       O      0.583820000000     0.985650000000     0.876425000000     0          
O5       O      0.783820000000     0.318983333333     0.376425000000     0          
O5       O      0.783820000000     0.318983333333     0.876425000000     0          
O5       O      0.783820000000     0.652316666667     0.376425000000     0          
O5       O      0.783820000000     0.652316666667     0.876425000000     0          
O5       O      0.783820000000     0.985650000000     0.376425000000     0          
O5       O      0.783820000000     0.985650000000     0.876425000000     0          
O5       O      0.983820000000     0.318983333333     0.376425000000     0          
O5       O      0.983820000000     0.318983333333     0.876425000000     0          
O5       O      0.983820000000     0.652316666667     0.376425000000     0          
O5       O      0.983820000000     0.652316666667     0.876425000000     0          
O5       O      0.983820000000     0.985650000000     0.376425000000     0          
O5       O      0.983820000000     0.985650000000     0.876425000000     0          
O6       O      0.105020000000     0.089193333333     0.164160000000     0          
O6       O      0.105020000000     0.089193333333     0.664160000000     0          
O6       O      0.105020000000     0.422526666667     0.164160000000     0          
O6       O      0.105020000000     0.422526666667     0.664160000000     0          
O6       O      0.105020000000     0.755860000000     0.164160000000     0          
O6       O      0.105020000000     0.755860000000     0.664160000000     0          
O6       O      0.305020000000     0.089193333333     0.164160000000     0          
O6       O      0.305020000000     0.089193333333     0.664160000000     0          
O6       O      0.305020000000     0.422526666667     0.164160000000     0          
O6       O      0.305020000000     0.422526666667     0.664160000000     0          
O6       O      0.305020000000     0.755860000000     0.164160000000     0          
O6       O      0.305020000000     0.755860000000     0.664160000000     0          
O6       O      0.505020000000     0.089193333333     0.164160000000     0          
O6       O      0.505020000000     0.089193333333     0.664160000000     0          
O6       O      0.505020000000     0.422526666667     0.164160000000     0          
O6       O      0.505020000000     0.422526666667     0.664160000000     0          
O6       O      0.505020000000     0.755860000000     0.164160000000     0          
O6       O      0.505020000000     0.755860000000     0.664160000000     0          
O6       O      0.705020000000     0.089193333333     0.164160000000     0          
O6       O      0.705020000000     0.089193333333     0.664160000000     0          
O6       O      0.705020000000     0.422526666667     0.164160000000     0          
O6       O      0.705020000000     0.422526666667     0.664160000000     0          
O6       O      0.705020000000     0.755860000000     0.164160000000     0          
O6       O      0.705020000000     0.755860000000     0.664160000000     0          
O6       O      0.905020000000     0.089193333333     0.164160000000     0          
O6       O      0.905020000000     0.089193333333     0.664160000000     0          
O6       O      0.905020000000     0.422526666667     0.164160000000     0          
O6       O      0.905020000000     0.422526666667     0.664160000000     0          
O6       O      0.905020000000     0.755860000000     0.164160000000     0          
O6       O      0.905020000000     0.755860000000     0.664160000000     0          
O7       O      0.061000000000     0.002300000000     0.434520000000     0          
O7       O      0.061000000000     0.002300000000     0.934520000000     0          
O7       O      0.061000000000     0.335633333333     0.434520000000     0          
O7       O      0.061000000000     0.335633333333     0.934520000000     0          
O7       O      0.061000000000     0.668966666667     0.434520000000     0          
O7       O      0.061000000000     0.668966666667     0.934520000000     0          
O7       O      0.261000000000     0.002300000000     0.434520000000     0          
O7       O      0.261000000000     0.002300000000     0.934520000000     0          
O7       O      0.261000000000     0.335633333333     0.434520000000     0          
O7       O      0.261000000000     0.335633333333     0.934520000000     0          
O7       O      0.261000000000     0.668966666667     0.434520000000     0          
O7       O      0.261000000000     0.668966666667     0.934520000000     0          
O7       O      0.461000000000     0.002300000000     0.434520000000     0          
O7       O      0.461000000000     0.002300000000     0.934520000000     0          
O7       O      0.461000000000     0.335633333333     0.434520000000     0          
O7       O      0.461000000000     0.335633333333     0.934520000000     0          
O7       O      0.461000000000     0.668966666667     0.434520000000     0          
O7       O      0.461000000000     0.668966666667     0.934520000000     0          
O7       O      0.661000000000     0.002300000000     0.434520000000     0          
O7       O      0.661000000000     0.002300000000     0.934520000000     0          
O7       O      0.661000000000     0.335633333333     0.434520000000     0          
O7       O      0.661000000000     0.335633333333     0.934520000000     0          
O7       O      0.661000000000     0.668966666667     0.434520000000     0          
O7       O      0.661000000000     0.668966666667     0.934520000000     0          
O7       O      0.861000000000     0.002300000000     0.434520000000     0          
O7       O      0.861000000000     0.002300000000     0.934520000000     0          
O7       O      0.861000000000     0.335633333333     0.434520000000     0          
O7       O      0.861000000000     0.335633333333     0.934520000000     0          
O7       O      0.861000000000     0.668966666667     0.434520000000     0          
O7       O      0.861000000000     0.668966666667     0.934520000000     0          
O8       O      0.083040000000     0.079246666667     0.095320000000     0          
O8       O      0.083040000000     0.079246666667     0.595320000000     0          
O8       O      0.083040000000     0.412580000000     0.095320000000     0          
O8       O      0.083040000000     0.412580000000     0.595320000000     0          
O8       O      0.083040000000     0.745913333333     0.095320000000     0          
O8       O      0.083040000000     0.745913333333     0.595320000000     0          
O8       O      0.283040000000     0.079246666667     0.095320000000     0          
O8       O      0.283040000000     0.079246666667     0.595320000000     0          
O8       O      0.283040000000     0.412580000000     0.095320000000     0          
O8       O      0.283040000000     0.412580000000     0.595320000000     0          
O8       O      0.283040000000     0.745913333333     0.095320000000     0          
O8       O      0.283040000000     0.745913333333     0.595320000000     0          
O8       O      0.483040000000     0.079246666667     0.095320000000     0          
O8       O      0.483040000000     0.079246666667     0.595320000000     0          
O8       O      0.483040000000     0.412580000000     0.095320000000     0          
O8       O      0.483040000000     0.412580000000     0.595320000000     0          
O8       O      0.483040000000     0.745913333333     0.095320000000     0          
O8       O      0.483040000000     0.745913333333     0.595320000000     0          
O8       O      0.683040000000     0.079246666667     0.095320000000     0          
O8       O      0.683040000000     0.079246666667     0.595320000000     0          
O8       O      0.683040000000     0.412580000000     0.095320000000     0          
O8       O      0.683040000000     0.412580000000     0.595320000000     0          
O8       O      0.683040000000     0.745913333333     0.095320000000     0          
O8       O      0.683040000000     0.745913333333     0.595320000000     0          
O8       O      0.883040000000     0.079246666667     0.095320000000     0          
O8       O      0.883040000000     0.079246666667     0.595320000000     0          
O8       O      0.883040000000     0.412580000000     0.095320000000     0          
O8       O      0.883040000000     0.412580000000     0.595320000000     0          
O8       O      0.883040000000     0.745913333333     0.095320000000     0          
O8       O      0.883040000000     0.745913333333     0.595320000000     0          
O9       O      0.143780000000     0.028220000000     0.444120000000     0          
O9       O      0.143780000000     0.028220000000     0.944120000000     0          
O9       O      0.143780000000     0.361553333333     0.444120000000     0          
O9       O      0.143780000000     0.361553333333     0.944120000000     0          
O9       O      0.143780000000     0.694886666667     0.444120000000     0          
O9       O      0.143780000000     0.694886666667     0.944120000000     0          
O9       O      0.343780000000     0.028220000000     0.444120000000     0          
O9       O      0.343780000000     0.028220000000     0.944120000000     0          
O9       O      0.343780000000     0.361553333333     0.444120000000     0          
O9       O      0.343780000000     0.361553333333     0.944120000000     0          
O9       O      0.343780000000     0.694886666667     0.444120000000     0          
O9       O      0.343780000000     0.694886666667     0.944120000000     0          
O9       O      0.543780000000     0.028220000000     0.444120000000     0          
O9       O      0.543780000000     0.028220000000     0.944120000000     0          
O9       O      0.543780000000     0.361553333333     0.444120000000     0          
O9       O      0.543780000000     0.361553333333     0.944120000000     0          
O9       O      0.543780000000     0.694886666667     0.444120000000     0          
O9       O      0.543780000000     0.694886666667     0.944120000000     0          
O9       O      0.743780000000     0.028220000000     0.444120000000     0          
O9       O      0.743780000000     0.028220000000     0.944120000000     0          
O9       O      0.743780000000     0.361553333333     0.444120000000     0          
O9       O      0.743780000000     0.361553333333     0.944120000000     0          
O9       O      0.743780000000     0.694886666667     0.444120000000     0          
O9       O      0.743780000000     0.694886666667     0.944120000000     0          
O9       O      0.943780000000     0.028220000000     0.444120000000     0          
O9       O      0.943780000000     0.028220000000     0.944120000000     0          
O9       O      0.943780000000     0.361553333333     0.444120000000     0          
O9       O      0.943780000000     0.361553333333     0.944120000000     0          
O9       O      0.943780000000     0.694886666667     0.444120000000     0          
O9       O      0.943780000000     0.694886666667     0.944120000000     0          
O10      O      0.005140000000     0.171923333333     0.378110000000     0          
O10      O      0.005140000000     0.171923333333     0.878110000000     0          
O10      O      0.005140000000     0.505256666667     0.378110000000     0          
O10      O      0.005140000000     0.505256666667     0.878110000000     0          
O10      O      0.005140000000     0.838590000000     0.378110000000     0          
O10      O      0.005140000000     0.838590000000     0.878110000000     0          
O10      O      0.205140000000     0.171923333333     0.378110000000     0          
O10      O      0.205140000000     0.171923333333     0.878110000000     0          
O10      O      0.205140000000     0.505256666667     0.378110000000     0          
O10      O      0.205140000000     0.505256666667     0.878110000000     0          
O10      O      0.205140000000     0.838590000000     0.378110000000     0          
O10      O      0.205140000000     0.838590000000     0.878110000000     0          
O10      O      0.405140000000     0.171923333333     0.378110000000     0          
O10      O      0.405140000000     0.171923333333     0.878110000000     0          
O10      O      0.405140000000     0.505256666667     0.378110000000     0          
O10      O      0.405140000000     0.505256666667     0.878110000000     0          
O10      O      0.405140000000     0.838590000000     0.378110000000     0          
O10      O      0.405140000000     0.838590000000     0.878110000000     0          
O10      O      0.605140000000     0.171923333333     0.378110000000     0          
O10      O      0.605140000000     0.171923333333     0.878110000000     0          
O10      O      0.605140000000     0.505256666667     0.378110000000     0          
O10      O      0.605140000000     0.505256666667     0.878110000000     0          
O10      O      0.605140000000     0.838590000000     0.378110000000     0          
O10      O      0.605140000000     0.838590000000     0.878110000000     0          
O10      O      0.805140000000     0.171923333333     0.378110000000     0          
O10      O      0.805140000000     0.171923333333     0.878110000000     0          
O10      O      0.805140000000     0.505256666667     0.378110000000     0          
O10      O      0.805140000000     0.505256666667     0.878110000000     0          
O10      O      0.805140000000     0.838590000000     0.378110000000     0          
O10      O      0.805140000000     0.838590000000     0.878110000000     0          
O11      O      0.083820000000     0.181016666667     0.373575000000     0          
O11      O      0.083820000000     0.181016666667     0.873575000000     0          
O11      O      0.083820000000     0.514350000000     0.373575000000     0          
O11      O      0.083820000000     0.514350000000     0.873575000000     0          
O11      O      0.083820000000     0.847683333333     0.373575000000     0          
O11      O      0.083820000000     0.847683333333     0.873575000000     0          
O11      O      0.283820000000     0.181016666667     0.373575000000     0          
O11      O      0.283820000000     0.181016666667     0.873575000000     0          
O11      O      0.283820000000     0.514350000000     0.373575000000     0          
O11      O      0.283820000000     0.514350000000     0.873575000000     0          
O11      O      0.283820000000     0.847683333333     0.373575000000     0          
O11      O      0.283820000000     0.847683333333     0.873575000000     0          
O11      O      0.483820000000     0.181016666667     0.373575000000     0          
O11      O      0.483820000000     0.181016666667     0.873575000000     0          
O11      O      0.483820000000     0.514350000000     0.373575000000     0          
O11      O      0.483820000000     0.514350000000     0.873575000000     0          
O11      O      0.483820000000     0.847683333333     0.373575000000     0          
O11      O      0.483820000000     0.847683333333     0.873575000000     0          
O11      O      0.683820000000     0.181016666667     0.373575000000     0          
O11      O      0.683820000000     0.181016666667     0.873575000000     0          
O11      O      0.683820000000     0.514350000000     0.373575000000     0          
O11      O      0.683820000000     0.514350000000     0.873575000000     0          
O11      O      0.683820000000     0.847683333333     0.373575000000     0          
O11      O      0.683820000000     0.847683333333     0.873575000000     0          
O11      O      0.883820000000     0.181016666667     0.373575000000     0          
O11      O      0.883820000000     0.181016666667     0.873575000000     0          
O11      O      0.883820000000     0.514350000000     0.373575000000     0          
O11      O      0.883820000000     0.514350000000     0.873575000000     0          
O11      O      0.883820000000     0.847683333333     0.373575000000     0          
O11      O      0.883820000000     0.847683333333     0.873575000000     0          
O12      O      0.005020000000     0.077473333333     0.085840000000     0          
O12      O      0.005020000000     0.077473333333     0.585840000000     0          
O12      O      0.005020000000     0.410806666667     0.085840000000     0          
O12      O      0.005020000000     0.410806666667     0.585840000000     0          
O12      O      0.005020000000     0.744140000000     0.085840000000     0          
O12      O      0.005020000000     0.744140000000     0.585840000000     0          
O12      O      0.205020000000     0.077473333333     0.085840000000     0          
O12      O      0.205020000000     0.077473333333     0.585840000000     0          
O12      O      0.205020000000     0.410806666667     0.085840000000     0          
O12      O      0.205020000000     0.410806666667     0.585840000000     0          
O12      O      0.205020000000     0.744140000000     0.085840000000     0          
O12      O      0.205020000000     0.744140000000     0.585840000000     0          
O12      O      0.405020000000     0.077473333333     0.085840000000     0          
O12      O      0.405020000000     0.077473333333     0.585840000000     0          
O12      O      0.405020000000     0.410806666667     0.085840000000     0          
O12      O      0.405020000000     0.410806666667     0.585840000000     0          
O12      O      0.405020000000     0.744140000000     0.085840000000     0          
O12      O      0.405020000000     0.744140000000     0.585840000000     0          
O12      O      0.605020000000     0.077473333333     0.085840000000     0          
O12      O      0.605020000000     0.077473333333     0.585840000000     0          
O12      O      0.605020000000     0.410806666667     0.085840000000     0          
O12      O      0.605020000000     0.410806666667     0.585840000000     0          
O12      O      0.605020000000     0.744140000000     0.085840000000     0          
O12      O      0.605020000000     0.744140000000     0.585840000000     0          
O12      O      0.805020000000     0.077473333333     0.085840000000     0          
O12      O      0.805020000000     0.077473333333     0.585840000000     0          
O12      O      0.805020000000     0.410806666667     0.085840000000     0          
O12      O      0.805020000000     0.410806666667     0.585840000000     0          
O12      O      0.805020000000     0.744140000000     0.085840000000     0          
O12      O      0.805020000000     0.744140000000     0.585840000000     0          
O13      O      0.039000000000     0.168966666667     0.184520000000     0          
O13      O      0.039000000000     0.168966666667     0.684520000000     0          
O13      O      0.039000000000     0.502300000000     0.184520000000     0          
O13      O      0.039000000000     0.502300000000     0.684520000000     0          
O13      O      0.039000000000     0.835633333333     0.184520000000     0          
O13      O      0.039000000000     0.835633333333     0.684520000000     0          
O13      O      0.239000000000     0.168966666667     0.184520000000     0          
O13      O      0.239000000000     0.168966666667     0.684520000000     0          
O13      O      0.239000000000     0.502300000000     0.184520000000     0          
O13      O      0.239000000000     0.502300000000     0.684520000000     0          
O13      O      0.239000000000     0.835633333333     0.184520000000     0          
O13      O      0.239000000000     0.835633333333     0.684520000000     0          
O13      O      0.439000000000     0.168966666667     0.184520000000     0          
O13      O      0.439000000000     0.168966666667     0.684520000000     0          
O13      O      0.439000000000     0.502300000000     0.184520000000     0          
O13      O      0.439000000000     0.502300000000     0.684520000000     0          
O13      O      0.439000000000     0.835633333333     0.184520000000     0          
O13      O      0.439000000000     0.835633333333     0.684520000000     0          
O13      O      0.639000000000     0.168966666667     0.184520000000     0          
O13      O      0.639000000000     0.168966666667     0.684520000000     0          
O13      O      0.639000000000     0.502300000000     0.184520000000     0          
O13      O      0.639000000000     0.502300000000     0.684520000000     0          
O13      O      0.639000000000     0.835633333333     0.184520000000     0          
O13      O      0.639000000000     0.835633333333     0.684520000000     0          
O13      O      0.839000000000     0.168966666667     0.184520000000     0          
O13      O      0.839000000000     0.168966666667     0.684520000000     0          
O13      O      0.839000000000     0.502300000000     0.184520000000     0          
O13      O      0.839000000000     0.502300000000     0.684520000000     0          
O13      O      0.839000000000     0.835633333333     0.184520000000     0          
O13      O      0.839000000000     0.835633333333     0.684520000000     0          
O14      O      0.016960000000     0.245913333333     0.345320000000     0          
O14      O      0.016960000000     0.245913333333     0.845320000000     0          
O14      O      0.016960000000     0.579246666667     0.345320000000     0          
O14      O      0.016960000000     0.579246666667     0.845320000000     0          
O14      O      0.016960000000     0.912580000000     0.345320000000     0          
O14      O      0.016960000000     0.912580000000     0.845320000000     0          
O14      O      0.216960000000     0.245913333333     0.345320000000     0          
O14      O      0.216960000000     0.245913333333     0.845320000000     0          
O14      O      0.216960000000     0.579246666667     0.345320000000     0          
O14      O      0.216960000000     0.579246666667     0.845320000000     0          
O14      O      0.216960000000     0.912580000000     0.345320000000     0          
O14      O      0.216960000000     0.912580000000     0.845320000000     0          
O14      O      0.416960000000     0.245913333333     0.345320000000     0          
O14      O      0.416960000000     0.245913333333     0.845320000000     0          
O14      O      0.416960000000     0.579246666667     0.345320000000     0          
O14      O      0.416960000000     0.579246666667     0.845320000000     0          
O14      O      0.416960000000     0.912580000000     0.345320000000     0          
O14      O      0.416960000000     0.912580000000     0.845320000000     0          
O14      O      0.616960000000     0.245913333333     0.345320000000     0          
O14      O      0.616960000000     0.245913333333     0.845320000000     0          
O14      O      0.616960000000     0.579246666667     0.345320000000     0          
O14      O      0.616960000000     0.579246666667     0.845320000000     0          
O14      O      0.616960000000     0.912580000000     0.345320000000     0          
O14      O      0.616960000000     0.912580000000     0.845320000000     0          
O14      O      0.816960000000     0.245913333333     0.345320000000     0          
O14      O      0.816960000000     0.245913333333     0.845320000000     0          
O14      O      0.816960000000     0.579246666667     0.345320000000     0          
O14      O      0.816960000000     0.579246666667     0.845320000000     0          
O14      O      0.816960000000     0.912580000000     0.345320000000     0          
O14      O      0.816960000000     0.912580000000     0.845320000000     0          
O15      O      0.156220000000     0.194886666667     0.194120000000     0          
O15      O      0.156220000000     0.194886666667     0.694120000000     0          
O15      O      0.156220000000     0.528220000000     0.194120000000     0          
O15      O      0.156220000000     0.528220000000     0.694120000000     0          
O15      O      0.156220000000     0.861553333333     0.194120000000     0          
O15      O      0.156220000000     0.861553333333     0.694120000000     0          
O15      O      0.356220000000     0.194886666667     0.194120000000     0          
O15      O      0.356220000000     0.194886666667     0.694120000000     0          
O15      O      0.356220000000     0.528220000000     0.194120000000     0          
O15      O      0.356220000000     0.528220000000     0.694120000000     0          
O15      O      0.356220000000     0.861553333333     0.194120000000     0          
O15      O      0.356220000000     0.861553333333     0.694120000000     0          
O15      O      0.556220000000     0.194886666667     0.194120000000     0          
O15      O      0.556220000000     0.194886666667     0.694120000000     0          
O15      O      0.556220000000     0.528220000000     0.194120000000     0          
O15      O      0.556220000000     0.528220000000     0.694120000000     0          
O15      O      0.556220000000     0.861553333333     0.194120000000     0          
O15      O      0.556220000000     0.861553333333     0.694120000000     0          
O15      O      0.756220000000     0.194886666667     0.194120000000     0          
O15      O      0.756220000000     0.194886666667     0.694120000000     0          
O15      O      0.756220000000     0.528220000000     0.194120000000     0          
O15      O      0.756220000000     0.528220000000     0.694120000000     0          
O15      O      0.756220000000     0.861553333333     0.194120000000     0          
O15      O      0.756220000000     0.861553333333     0.694120000000     0          
O15      O      0.956220000000     0.194886666667     0.194120000000     0          
O15      O      0.956220000000     0.194886666667     0.694120000000     0          
O15      O      0.956220000000     0.528220000000     0.194120000000     0          
O15      O      0.956220000000     0.528220000000     0.694120000000     0          
O15      O      0.956220000000     0.861553333333     0.194120000000     0          
O15      O      0.956220000000     0.861553333333     0.694120000000     0          
O16      O      0.094860000000     0.005256666667     0.128110000000     0          
O16      O      0.094860000000     0.005256666667     0.628110000000     0          
O16      O      0.094860000000     0.338590000000     0.128110000000     0          
O16      O      0.094860000000     0.338590000000     0.628110000000     0          
O16      O      0.094860000000     0.671923333333     0.128110000000     0          
O16      O      0.094860000000     0.671923333333     0.628110000000     0          
O16      O      0.294860000000     0.005256666667     0.128110000000     0          
O16      O      0.294860000000     0.005256666667     0.628110000000     0          
O16      O      0.294860000000     0.338590000000     0.128110000000     0          
O16      O      0.294860000000     0.338590000000     0.628110000000     0          
O16      O      0.294860000000     0.671923333333     0.128110000000     0          
O16      O      0.294860000000     0.671923333333     0.628110000000     0          
O16      O      0.494860000000     0.005256666667     0.128110000000     0          
O16      O      0.494860000000     0.005256666667     0.628110000000     0          
O16      O      0.494860000000     0.338590000000     0.128110000000     0          
O16      O      0.494860000000     0.338590000000     0.628110000000     0          
O16      O      0.494860000000     0.671923333333     0.128110000000     0          
O16      O      0.494860000000     0.671923333333     0.628110000000     0          
O16      O      0.694860000000     0.005256666667     0.128110000000     0          
O16      O      0.694860000000     0.005256666667     0.628110000000     0          
O16      O      0.694860000000     0.338590000000     0.128110000000     0          
O16      O      0.694860000000     0.338590000000     0.628110000000     0          
O16      O      0.694860000000     0.671923333333     0.128110000000     0          
O16      O      0.694860000000     0.671923333333     0.628110000000     0          
O16      O      0.894860000000     0.005256666667     0.128110000000     0          
O16      O      0.894860000000     0.005256666667     0.628110000000     0          
O16      O      0.894860000000     0.338590000000     0.128110000000     0          
O16      O      0.894860000000     0.338590000000     0.628110000000     0          
O16      O      0.894860000000     0.671923333333     0.128110000000     0          
O16      O      0.894860000000     0.671923333333     0.628110000000     0          
O17      O      0.016180000000     0.014350000000     0.123575000000     0          
O17      O      0.016180000000     0.014350000000     0.623575000000     0          
O17      O      0.016180000000     0.347683333333     0.123575000000     0          
O17      O      0.016180000000     0.347683333333     0.623575000000     0          
O17      O      0.016180000000     0.681016666667     0.123575000000     0          
O17      O      0.016180000000     0.681016666667     0.623575000000     0          
O17      O      0.216180000000     0.014350000000     0.123575000000     0          
O17      O      0.216180000000     0.014350000000     0.623575000000     0          
O17      O      0.216180000000     0.347683333333     0.123575000000     0          
O17      O      0.216180000000     0.347683333333     0.623575000000     0          
O17      O      0.216180000000     0.681016666667     0.123575000000     0          
O17      O      0.216180000000     0.681016666667     0.623575000000     0          
O17      O      0.416180000000     0.014350000000     0.123575000000     0          
O17      O      0.416180000000     0.014350000000     0.623575000000     0          
O17      O      0.416180000000     0.347683333333     0.123575000000     0          
O17      O      0.416180000000     0.347683333333     0.623575000000     0          
O17      O      0.416180000000     0.681016666667     0.123575000000     0          
O17      O      0.416180000000     0.681016666667     0.623575000000     0          
O17      O      0.616180000000     0.014350000000     0.123575000000     0          
O17      O      0.616180000000     0.014350000000     0.623575000000     0          
O17      O      0.616180000000     0.347683333333     0.123575000000     0          
O17      O      0.616180000000     0.347683333333     0.623575000000     0          
O17      O      0.616180000000     0.681016666667     0.123575000000     0          
O17      O      0.616180000000     0.681016666667     0.623575000000     0          
O17      O      0.816180000000     0.014350000000     0.123575000000     0          
O17      O      0.816180000000     0.014350000000     0.623575000000     0          
O17      O      0.816180000000     0.347683333333     0.123575000000     0          
O17      O      0.816180000000     0.347683333333     0.623575000000     0          
O17      O      0.816180000000     0.681016666667     0.123575000000     0          
O17      O      0.816180000000     0.681016666667     0.623575000000     0          
O18      O      0.094980000000     0.244140000000     0.335840000000     0          
O18      O      0.094980000000     0.244140000000     0.835840000000     0          
O18      O      0.094980000000     0.577473333333     0.335840000000     0          
O18      O      0.094980000000     0.577473333333     0.835840000000     0          
O18      O      0.094980000000     0.910806666667     0.335840000000     0          
O18      O      0.094980000000     0.910806666667     0.835840000000     0          
O18      O      0.294980000000     0.244140000000     0.335840000000     0          
O18      O      0.294980000000     0.244140000000     0.835840000000     0          
O18      O      0.294980000000     0.577473333333     0.335840000000     0          
O18      O      0.294980000000     0.577473333333     0.835840000000     0          
O18      O      0.294980000000     0.910806666667     0.335840000000     0          
O18      O      0.294980000000     0.910806666667     0.835840000000     0          
O18      O      0.494980000000     0.244140000000     0.335840000000     0          
O18      O      0.494980000000     0.244140000000     0.835840000000     0          
O18      O      0.494980000000     0.577473333333     0.335840000000     0          
O18      O      0.494980000000     0.577473333333     0.835840000000     0          
O18      O      0.494980000000     0.910806666667     0.335840000000     0          
O18      O      0.494980000000     0.910806666667     0.835840000000     0          
O18      O      0.694980000000     0.244140000000     0.335840000000     0          
O18      O      0.694980000000     0.244140000000     0.835840000000     0          
O18      O      0.694980000000     0.577473333333     0.335840000000     0          
O18      O      0.694980000000     0.577473333333     0.835840000000     0          
O18      O      0.694980000000     0.910806666667     0.335840000000     0          
O18      O      0.694980000000     0.910806666667     0.835840000000     0          
O18      O      0.894980000000     0.244140000000     0.335840000000     0          
O18      O      0.894980000000     0.244140000000     0.835840000000     0          
O18      O      0.894980000000     0.577473333333     0.335840000000     0          
O18      O      0.894980000000     0.577473333333     0.835840000000     0          
O18      O      0.894980000000     0.910806666667     0.335840000000     0          
O18      O      0.894980000000     0.910806666667     0.835840000000     0          
O19      O      0.139000000000     0.331033333333     0.065480000000     0          
O19      O      0.139000000000     0.331033333333     0.565480000000     0          
O19      O      0.139000000000     0.664366666667     0.065480000000     0          
O19      O      0.139000000000     0.664366666667     0.565480000000     0          
O19      O      0.139000000000     0.997700000000     0.065480000000     0          
O19      O      0.139000000000     0.997700000000     0.565480000000     0          
O19      O      0.339000000000     0.331033333333     0.065480000000     0          
O19      O      0.339000000000     0.331033333333     0.565480000000     0          
O19      O      0.339000000000     0.664366666667     0.065480000000     0          
O19      O      0.339000000000     0.664366666667     0.565480000000     0          
O19      O      0.339000000000     0.997700000000     0.065480000000     0          
O19      O      0.339000000000     0.997700000000     0.565480000000     0          
O19      O      0.539000000000     0.331033333333     0.065480000000     0          
O19      O      0.539000000000     0.331033333333     0.565480000000     0          
O19      O      0.539000000000     0.664366666667     0.065480000000     0          
O19      O      0.539000000000     0.664366666667     0.565480000000     0          
O19      O      0.539000000000     0.997700000000     0.065480000000     0          
O19      O      0.539000000000     0.997700000000     0.565480000000     0          
O19      O      0.739000000000     0.331033333333     0.065480000000     0          
O19      O      0.739000000000     0.331033333333     0.565480000000     0          
O19      O      0.739000000000     0.664366666667     0.065480000000     0          
O19      O      0.739000000000     0.664366666667     0.565480000000     0          
O19      O      0.739000000000     0.997700000000     0.065480000000     0          
O19      O      0.739000000000     0.997700000000     0.565480000000     0          
O19      O      0.939000000000     0.331033333333     0.065480000000     0          
O19      O      0.939000000000     0.331033333333     0.565480000000     0          
O19      O      0.939000000000     0.664366666667     0.065480000000     0          
O19      O      0.939000000000     0.664366666667     0.565480000000     0          
O19      O      0.939000000000     0.997700000000     0.065480000000     0          
O19      O      0.939000000000     0.997700000000     0.565480000000     0          
O20      O      0.116960000000     0.254086666667     0.404680000000     0          
O20      O      0.116960000000     0.254086666667     0.904680000000     0          
O20      O      0.116960000000     0.587420000000     0.404680000000     0          
O20      O      0.116960000000     0.587420000000     0.904680000000     0          
O20      O      0.116960000000     0.920753333333     0.404680000000     0          
O20      O      0.116960000000     0.920753333333     0.904680000000     0          
O20      O      0.316960000000     0.254086666667     0.404680000000     0          
O20      O      0.316960000000     0.254086666667     0.904680000000     0          
O20      O      0.316960000000     0.587420000000     0.404680000000     0          
O20      O      0.316960000000     0.587420000000     0.904680000000     0          
O20      O      0.316960000000     0.920753333333     0.404680000000     0          
O20      O      0.316960000000     0.920753333333     0.904680000000     0          
O20      O      0.516960000000     0.254086666667     0.404680000000     0          
O20      O      0.516960000000     0.254086666667     0.904680000000     0          
O20      O      0.516960000000     0.587420000000     0.404680000000     0          
O20      O      0.516960000000     0.587420000000     0.904680000000     0          
O20      O      0.516960000000     0.920753333333     0.404680000000     0          
O20      O      0.516960000000     0.920753333333     0.904680000000     0          
O20      O      0.716960000000     0.254086666667     0.404680000000     0          
O20      O      0.716960000000     0.254086666667     0.904680000000     0          
O20      O      0.716960000000     0.587420000000     0.404680000000     0          
O20      O      0.716960000000     0.587420000000     0.904680000000     0          
O20      O      0.716960000000     0.920753333333     0.404680000000     0          
O20      O      0.716960000000     0.920753333333     0.904680000000     0          
O20      O      0.916960000000     0.254086666667     0.404680000000     0          
O20      O      0.916960000000     0.254086666667     0.904680000000     0          
O20      O      0.916960000000     0.587420000000     0.404680000000     0          
O20      O      0.916960000000     0.587420000000     0.904680000000     0          
O20      O      0.916960000000     0.920753333333     0.404680000000     0          
O20      O      0.916960000000     0.920753333333     0.904680000000     0          
O21      O      0.056220000000     0.305113333333     0.055880000000     0          
O21      O      0.056220000000     0.305113333333     0.555880000000     0          
O21      O      0.056220000000     0.638446666667     0.055880000000     0          
O21      O      0.056220000000     0.638446666667     0.555880000000     0          
O21      O      0.056220000000     0.971780000000     0.055880000000     0          
O21      O      0.056220000000     0.971780000000     0.555880000000     0          
O21      O      0.256220000000     0.305113333333     0.055880000000     0          
O21      O      0.256220000000     0.305113333333     0.555880000000     0          
O21      O      0.256220000000     0.638446666667     0.055880000000     0          
O21      O      0.256220000000     0.638446666667     0.555880000000     0          
O21      O      0.256220000000     0.971780000000     0.055880000000     0          
O21      O      0.256220000000     0.971780000000     0.555880000000     0          
O21      O      0.456220000000     0.305113333333     0.055880000000     0          
O21      O      0.456220000000     0.305113333333     0.555880000000     0          
O21      O      0.456220000000     0.638446666667     0.055880000000     0          
O21      O      0.456220000000     0.638446666667     0.555880000000     0          
O21      O      0.456220000000     0.971780000000     0.055880000000     0          
O21      O      0.456220000000     0.971780000000     0.555880000000     0          
O21      O      0.656220000000     0.305113333333     0.055880000000     0          
O21      O      0.656220000000     0.305113333333     0.555880000000     0          
O21      O      0.656220000000     0.638446666667     0.055880000000     0          
O21      O      0.656220000000     0.638446666667     0.555880000000     0          
O21      O      0.656220000000     0.971780000000     0.055880000000     0          
O21      O      0.656220000000     0.971780000000     0.555880000000     0          
O21      O      0.856220000000     0.305113333333     0.055880000000     0          
O21      O      0.856220000000     0.305113333333     0.555880000000     0          
O21      O      0.856220000000     0.638446666667     0.055880000000     0          
O21      O      0.856220000000     0.638446666667     0.555880000000     0          
O21      O      0.856220000000     0.971780000000     0.055880000000     0          
O21      O      0.856220000000     0.971780000000     0.555880000000     0          
O22      O      0.194860000000     0.161410000000     0.121890000000     0          
O22      O      0.194860000000     0.161410000000     0.621890000000     0          
O22      O      0.194860000000     0.494743333333     0.121890000000     0          
O22      O      0.194860000000     0.494743333333     0.621890000000     0          
O22      O      0.194860000000     0.828076666667     0.121890000000     0          
O22      O      0.194860000000     0.828076666667     0.621890000000     0          
O22      O      0.394860000000     0.161410000000     0.121890000000     0          
O22      O      0.394860000000     0.161410000000     0.621890000000     0          
O22      O      0.394860000000     0.494743333333     0.121890000000     0          
O22      O      0.394860000000     0.494743333333     0.621890000000     0          
O22      O      0.394860000000     0.828076666667     0.121890000000     0          
O22      O      0.394860000000     0.828076666667     0.621890000000     0          
O22      O      0.594860000000     0.161410000000     0.121890000000     0          
O22      O      0.594860000000     0.161410000000     0.621890000000     0          
O22      O      0.594860000000     0.494743333333     0.121890000000     0          
O22      O      0.594860000000     0.494743333333     0.621890000000     0          
O22      O      0.594860000000     0.828076666667     0.121890000000     0          
O22      O      0.594860000000     0.828076666667     0.621890000000     0          
O22      O      0.794860000000     0.161410000000     0.121890000000     0          
O22      O      0.794860000000     0.161410000000     0.621890000000     0          
O22      O      0.794860000000     0.494743333333     0.121890000000     0          
O22      O      0.794860000000     0.494743333333     0.621890000000     0          
O22      O      0.794860000000     0.828076666667     0.121890000000     0          
O22      O      0.794860000000     0.828076666667     0.621890000000     0          
O22      O      0.994860000000     0.161410000000     0.121890000000     0          
O22      O      0.994860000000     0.161410000000     0.621890000000     0          
O22      O      0.994860000000     0.494743333333     0.121890000000     0          
O22      O      0.994860000000     0.494743333333     0.621890000000     0          
O22      O      0.994860000000     0.828076666667     0.121890000000     0          
O22      O      0.994860000000     0.828076666667     0.621890000000     0          
O23      O      0.116180000000     0.152316666667     0.126425000000     0          
O23      O      0.116180000000     0.152316666667     0.626425000000     0          
O23      O      0.116180000000     0.485650000000     0.126425000000     0          
O23      O      0.116180000000     0.485650000000     0.626425000000     0          
O23      O      0.116180000000     0.818983333333     0.126425000000     0          
O23      O      0.116180000000     0.818983333333     0.626425000000     0          
O23      O      0.316180000000     0.152316666667     0.126425000000     0          
O23      O      0.316180000000     0.152316666667     0.626425000000     0          
O23      O      0.316180000000     0.485650000000     0.126425000000     0          
O23      O      0.316180000000     0.485650000000     0.626425000000     0          
O23      O      0.316180000000     0.818983333333     0.126425000000     0          
O23      O      0.316180000000     0.818983333333     0.626425000000     0          
O23      O      0.516180000000     0.152316666667     0.126425000000     0          
O23      O      0.516180000000     0.152316666667     0.626425000000     0          
O23      O      0.516180000000     0.485650000000     0.126425000000     0          
O23      O      0.516180000000     0.485650000000     0.626425000000     0          
O23      O      0.516180000000     0.818983333333     0.126425000000     0          
O23      O      0.516180000000     0.818983333333     0.626425000000     0          
O23      O      0.716180000000     0.152316666667     0.126425000000     0          
O23      O      0.716180000000     0.152316666667     0.626425000000     0          
O23      O      0.716180000000     0.485650000000     0.126425000000     0          
O23      O      0.716180000000     0.485650000000     0.626425000000     0          
O23      O      0.716180000000     0.818983333333     0.126425000000     0          
O23      O      0.716180000000     0.818983333333     0.626425000000     0          
O23      O      0.916180000000     0.152316666667     0.126425000000     0          
O23      O      0.916180000000     0.152316666667     0.626425000000     0          
O23      O      0.916180000000     0.485650000000     0.126425000000     0          
O23      O      0.916180000000     0.485650000000     0.626425000000     0          
O23      O      0.916180000000     0.818983333333     0.126425000000     0          
O23      O      0.916180000000     0.818983333333     0.626425000000     0          
O24      O      0.194980000000     0.255860000000     0.414160000000     0          
O24      O      0.194980000000     0.255860000000     0.914160000000     0          
O24      O      0.194980000000     0.589193333333     0.414160000000     0          
O24      O      0.194980000000     0.589193333333     0.914160000000     0          
O24      O      0.194980000000     0.922526666667     0.414160000000     0          
O24      O      0.194980000000     0.922526666667     0.914160000000     0          
O24      O      0.394980000000     0.255860000000     0.414160000000     0          
O24      O      0.394980000000     0.255860000000     0.914160000000     0          
O24      O      0.394980000000     0.589193333333     0.414160000000     0          
O24      O      0.394980000000     0.589193333333     0.914160000000     0          
O24      O      0.394980000000     0.922526666667     0.414160000000     0          
O24      O      0.394980000000     0.922526666667     0.914160000000     0          
O24      O      0.594980000000     0.255860000000     0.414160000000     0          
O24      O      0.594980000000     0.255860000000     0.914160000000     0          
O24      O      0.594980000000     0.589193333333     0.414160000000     0          
O24      O      0.594980000000     0.589193333333     0.914160000000     0          
O24      O      0.594980000000     0.922526666667     0.414160000000     0          
O24      O      0.594980000000     0.922526666667     0.914160000000     0          
O24      O      0.794980000000     0.255860000000     0.414160000000     0          
O24      O      0.794980000000     0.255860000000     0.914160000000     0          
O24      O      0.794980000000     0.589193333333     0.414160000000     0          
O24      O      0.794980000000     0.589193333333     0.914160000000     0          
O24      O      0.794980000000     0.922526666667     0.414160000000     0          
O24      O      0.794980000000     0.922526666667     0.914160000000     0          
O24      O      0.994980000000     0.255860000000     0.414160000000     0          
O24      O      0.994980000000     0.255860000000     0.914160000000     0          
O24      O      0.994980000000     0.589193333333     0.414160000000     0          
O24      O      0.994980000000     0.589193333333     0.914160000000     0          
O24      O      0.994980000000     0.922526666667     0.414160000000     0          
O24      O      0.994980000000     0.922526666667     0.914160000000     0          


